@<TRIPOS>MOLECULE
*****
 38 42 0 0 0
SMALL
GASTEIGER

@<TRIPOS>ATOM
      1 C         143.6325  141.5027  161.0797 C.ar    1  UNL1        0.1533
      2 C         143.6757  140.3272  160.1489 C.ar    1  UNL1        0.0527
      3 C         143.2038  140.4742  158.7327 C.ar    1  UNL1        0.0510
      4 C         142.6888  141.7967  158.2472 C.ar    1  UNL1        0.0160
      5 C         142.6456  142.9722  159.1779 C.ar    1  UNL1        0.0190
      6 C         143.1175  142.8252  160.5942 C.ar    1  UNL1        0.0850
      7 N         143.2470  139.2986  157.8020 N.pl3   1  UNL1       -0.3046
      8 C         142.6936  137.9749  158.2396 C.3     1  UNL1        0.1081
      9 C         142.7367  136.7993  157.3089 C.3     1  UNL1        0.0942
     10 N         143.3334  136.9474  155.9408 N.3     1  UNL1       -0.2620
     11 C         143.8868  138.2711  155.5031 C.3     1  UNL1        0.0942
     12 C         143.8437  139.4467  156.4338 C.3     1  UNL1        0.1081
     13 C         143.3766  135.7718  155.0100 C.3     1  UNL1        0.1587
     14 C         142.2353  134.7990  154.9771 C.2     1  UNL1        0.2421
     15 O         140.8716  135.2568  154.5518 O.2     1  UNL1       -0.2734
     16 N         142.4576  133.3684  155.3696 N.am    1  UNL1       -0.2749
     17 C         141.3163  132.3956  155.3367 C.3     1  UNL1        0.1149
     18 C         143.8213  132.9107  155.7949 C.3     1  UNL1        0.1149
     19 C         145.4886  141.7924  162.8745 C.3     1  UNL1        0.2525
     20 O         144.1043  141.3557  162.4960 O.3     1  UNL1       -0.4701
     21 N         143.0743  144.0008  161.5249 N.pl3   1  UNL1       -0.2802
     22 H         143.8108  144.6540  161.5273 H       1  UNL1        0.1552
     23 C         141.9089  144.1811  162.4519 C.ar    1  UNL1        0.2208
     24 N         140.8845  145.2404  162.1717 N.ar    1  UNL1       -0.2111
     25 C         139.7192  145.4207  163.0987 C.ar    1  UNL1        0.1147
     26 C         139.5782  144.5417  164.3060 C.ar    1  UNL1        0.0960
     27 CL        138.4128  144.7220  165.2330 Cl      1  UNL1       -0.0790
     28 C         140.6026  143.4823  164.5862 C.ar    1  UNL1        0.1138
     29 N         141.7679  143.3021  163.6592 N.ar    1  UNL1       -0.2111
     30 C         140.4616  142.6033  165.7935 C.ar    1  UNL1        0.1031
     31 C         141.1334  142.8109  167.1185 C.ar    1  UNL1        0.1196
     32 N         140.7110  141.6983  168.0316 N.ar    1  UNL1       -0.2248
     33 C         139.7782  140.8031  167.2709 C.ar    1  UNL1        0.1479
     34 C         139.0493  139.5510  167.6591 C.ar    1  UNL1        0.0374
     35 C         138.1663  138.8582  166.6641 C.ar    1  UNL1        0.0046
     36 C         138.0121  139.4176  165.2808 C.ar    1  UNL1        0.0191
     37 C         138.7410  140.6697  164.8926 C.ar    1  UNL1        0.0815
     38 N         139.6241  141.3625  165.8877 N.ar    1  UNL1       -0.2874
@<TRIPOS>BOND
     1    19    20    1
     2    20     1    1
     3     1     2   ar
     4     2     3   ar
     5     3     7    1
     6     7     8    1
     7     8     9    1
     8     9    10    1
     9    10    13    1
    10    13    14    1
    11    14    15    2
    12    14    16   am
    13    16    17    1
    14    16    18    1
    15    10    11    1
    16    11    12    1
    17     3     4   ar
    18     4     5   ar
    19     5     6   ar
    20     6    21    1
    21    21    23    1
    22    23    24   ar
    23    24    25   ar
    24    25    26   ar
    25    26    27    1
    26    26    28   ar
    27    28    30    1
    28    30    31   ar
    29    31    32   ar
    30    32    33   ar
    31    33    34   ar
    32    34    35   ar
    33    35    36   ar
    34    36    37   ar
    35    37    38   ar
    36    28    29   ar
    37     6     1   ar
    38    29    23   ar
    39    12     7    1
    40    38    30   ar
    41    38    33   ar
    42    21    22    1
@<TRIPOS>MOLECULE
*****
 38 42 0 0 0
SMALL
GASTEIGER

@<TRIPOS>ATOM
      1 C         138.5849  140.3027  159.7649 C.ar    1  UNL1        0.1533
      2 C         139.2043  139.1152  159.0893 C.ar    1  UNL1        0.0527
      3 C         140.2916  139.3120  158.0748 C.ar    1  UNL1        0.0510
      4 C         140.7594  140.6963  157.7359 C.ar    1  UNL1        0.0160
      5 C         140.1401  141.8837  158.4115 C.ar    1  UNL1        0.0190
      6 C         139.0528  141.6869  159.4260 C.ar    1  UNL1        0.0850
      7 N         140.9109  138.1246  157.3993 N.pl3   1  UNL1       -0.3046
      8 C         142.2831  137.6671  157.7965 C.3     1  UNL1        0.1081
      9 C         142.9026  136.4796  157.1209 C.3     1  UNL1        0.0942
     10 N         142.1497  135.7497  156.0484 N.3     1  UNL1       -0.2620
     11 C         140.7775  136.2072  155.6513 C.3     1  UNL1        0.0942
     12 C         140.1581  137.3946  156.3268 C.3     1  UNL1        0.1081
     13 C         142.7691  134.5621  155.3729 C.3     1  UNL1        0.1587
     14 C         142.2120  133.1897  155.6096 C.2     1  UNL1        0.2421
     15 O         142.4572  132.4959  156.9167 O.2     1  UNL1       -0.2734
     16 N         141.4098  132.5110  154.5392 N.am    1  UNL1       -0.2749
     17 C         140.8527  131.1385  154.7759 C.3     1  UNL1        0.1149
     18 C         141.1646  133.2048  153.2321 C.3     1  UNL1        0.1149
     19 C         137.8290  139.5637  162.1382 C.3     1  UNL1        0.2525
     20 O         137.4977  140.1058  160.7794 O.3     1  UNL1       -0.4701
     21 N         138.4335  142.8744  160.1015 N.pl3   1  UNL1       -0.2802
     22 H         137.8419  143.4761  159.5943 H       1  UNL1        0.1552
     23 C         138.7154  143.1451  161.5496 C.ar    1  UNL1        0.2208
     24 N         137.7743  143.9951  162.3508 N.ar    1  UNL1       -0.2111
     25 C         138.0563  144.2658  163.7990 C.ar    1  UNL1        0.1147
     26 C         139.2794  143.6866  164.4459 C.ar    1  UNL1        0.0960
     27 CL        139.5614  143.9573  165.8941 Cl      1  UNL1       -0.0790
     28 C         140.2206  142.8366  163.6447 C.ar    1  UNL1        0.1138
     29 N         139.9386  142.5660  162.1966 N.ar    1  UNL1       -0.2111
     30 C         141.4437  142.2575  164.2917 C.ar    1  UNL1        0.1031
     31 C         142.6587  143.0233  164.7244 C.ar    1  UNL1        0.1196
     32 N         143.6324  142.0499  165.3196 N.ar    1  UNL1       -0.2248
     33 C         143.0192  140.6824  165.2548 C.ar    1  UNL1        0.1479
     34 C         143.5178  139.3371  165.6922 C.ar    1  UNL1        0.0374
     35 C         142.6637  138.1200  165.4942 C.ar    1  UNL1        0.0046
     36 C         141.3110  138.2484  164.8589 C.ar    1  UNL1        0.0191
     37 C         140.8124  139.5937  164.4215 C.ar    1  UNL1        0.0815
     38 N         141.6665  140.8108  164.6195 N.ar    1  UNL1       -0.2874
@<TRIPOS>BOND
     1    19    20    1
     2    20     1    1
     3     1     2   ar
     4     2     3   ar
     5     3     7    1
     6     7     8    1
     7     8     9    1
     8     9    10    1
     9    10    13    1
    10    13    14    1
    11    14    15    2
    12    14    16   am
    13    16    17    1
    14    16    18    1
    15    10    11    1
    16    11    12    1
    17     3     4   ar
    18     4     5   ar
    19     5     6   ar
    20     6    21    1
    21    21    23    1
    22    23    24   ar
    23    24    25   ar
    24    25    26   ar
    25    26    27    1
    26    26    28   ar
    27    28    30    1
    28    30    31   ar
    29    31    32   ar
    30    32    33   ar
    31    33    34   ar
    32    34    35   ar
    33    35    36   ar
    34    36    37   ar
    35    37    38   ar
    36    28    29   ar
    37     6     1   ar
    38    29    23   ar
    39    12     7    1
    40    38    30   ar
    41    38    33   ar
    42    21    22    1
@<TRIPOS>MOLECULE
*****
 38 42 0 0 0
SMALL
GASTEIGER

@<TRIPOS>ATOM
      1 C         138.6703  140.0316  159.1649 C.ar    1  UNL1        0.1533
      2 C         139.3080  138.8155  158.5610 C.ar    1  UNL1        0.0527
      3 C         140.4619  138.9655  157.6144 C.ar    1  UNL1        0.0510
      4 C         140.9781  140.3315  157.2717 C.ar    1  UNL1        0.0160
      5 C         140.3405  141.5475  157.8756 C.ar    1  UNL1        0.0190
      6 C         139.1866  141.3976  158.8222 C.ar    1  UNL1        0.0850
      7 N         141.0994  137.7494  157.0105 N.pl3   1  UNL1       -0.3046
      8 C         140.4048  137.0084  155.9067 C.3     1  UNL1        0.1081
      9 C         141.0424  135.7922  155.3028 C.3     1  UNL1        0.0942
     10 N         142.3744  135.3173  155.8027 N.3     1  UNL1       -0.2620
     11 C         143.0690  136.0584  156.9065 C.3     1  UNL1        0.0942
     12 C         142.4315  137.2745  157.5104 C.3     1  UNL1        0.1081
     13 C         143.0120  134.1012  155.1988 C.3     1  UNL1        0.1587
     14 C         142.5075  132.7344  155.5557 C.2     1  UNL1        0.2421
     15 O         141.0799  132.3662  155.2796 O.2     1  UNL1       -0.2734
     16 N         143.4306  131.7358  156.1888 N.am    1  UNL1       -0.2749
     17 C         142.9260  130.3691  156.5457 C.3     1  UNL1        0.1149
     18 C         144.8582  132.1041  156.4649 C.3     1  UNL1        0.1149
     19 C         137.7498  139.3760  161.5043 C.3     1  UNL1        0.2525
     20 O         137.5164  139.8816  160.1115 O.3     1  UNL1       -0.4701
     21 N         138.5490  142.6137  159.4261 N.pl3   1  UNL1       -0.2802
     22 H         137.9496  143.1758  158.8839 H       1  UNL1        0.1552
     23 C         138.8247  142.9733  160.8560 C.ar    1  UNL1        0.2208
     24 N         137.6858  143.1839  161.8093 N.ar    1  UNL1       -0.2111
     25 C         137.9615  143.5436  163.2392 C.ar    1  UNL1        0.1147
     26 C         139.3759  143.6926  163.7158 C.ar    1  UNL1        0.0960
     27 CL        139.6515  144.0522  165.1458 Cl      1  UNL1       -0.0790
     28 C         140.5148  143.4819  162.7625 C.ar    1  UNL1        0.1138
     29 N         140.2391  143.1223  161.3327 N.ar    1  UNL1       -0.2111
     30 C         141.9292  143.6309  163.2392 C.ar    1  UNL1        0.1031
     31 C         142.5949  144.9148  163.6371 C.ar    1  UNL1        0.1196
     32 N         144.0033  144.5995  164.0455 N.ar    1  UNL1       -0.2248
     33 C         144.2082  143.1207  163.8998 C.ar    1  UNL1        0.1479
     34 C         145.3963  142.2419  164.1566 C.ar    1  UNL1        0.0374
     35 C         145.3026  140.7645  163.9150 C.ar    1  UNL1        0.0046
     36 C         144.0207  140.1658  163.4167 C.ar    1  UNL1        0.0191
     37 C         142.8325  141.0446  163.1599 C.ar    1  UNL1        0.0815
     38 N         142.9263  142.5220  163.4015 N.ar    1  UNL1       -0.2874
@<TRIPOS>BOND
     1    19    20    1
     2    20     1    1
     3     1     2   ar
     4     2     3   ar
     5     3     7    1
     6     7     8    1
     7     8     9    1
     8     9    10    1
     9    10    13    1
    10    13    14    1
    11    14    15    2
    12    14    16   am
    13    16    17    1
    14    16    18    1
    15    10    11    1
    16    11    12    1
    17     3     4   ar
    18     4     5   ar
    19     5     6   ar
    20     6    21    1
    21    21    23    1
    22    23    24   ar
    23    24    25   ar
    24    25    26   ar
    25    26    27    1
    26    26    28   ar
    27    28    30    1
    28    30    31   ar
    29    31    32   ar
    30    32    33   ar
    31    33    34   ar
    32    34    35   ar
    33    35    36   ar
    34    36    37   ar
    35    37    38   ar
    36    28    29   ar
    37     6     1   ar
    38    29    23   ar
    39    12     7    1
    40    38    30   ar
    41    38    33   ar
    42    21    22    1
@<TRIPOS>MOLECULE
*****
 38 42 0 0 0
SMALL
GASTEIGER

@<TRIPOS>ATOM
      1 C         142.2017  143.4793  161.0913 C.ar    1  UNL1        0.1533
      2 C         141.8800  142.6963  162.3297 C.ar    1  UNL1        0.0527
      3 C         140.7457  143.1233  163.2135 C.ar    1  UNL1        0.0510
      4 C         139.9332  144.3333  162.8589 C.ar    1  UNL1        0.0160
      5 C         140.2549  145.1162  161.6206 C.ar    1  UNL1        0.0190
      6 C         141.3892  144.6893  160.7368 C.ar    1  UNL1        0.0850
      7 N         140.4240  142.3403  164.4517 N.pl3   1  UNL1       -0.3046
      8 C         140.6627  142.9441  165.8040 C.3     1  UNL1        0.1081
      9 C         140.3410  142.1611  167.0424 C.3     1  UNL1        0.0942
     10 N         139.7807  140.7745  166.9284 N.3     1  UNL1       -0.2620
     11 C         139.5420  140.1707  165.5762 C.3     1  UNL1        0.0942
     12 C         139.8637  140.9536  164.3379 C.3     1  UNL1        0.1081
     13 C         139.4590  139.9914  168.1668 C.3     1  UNL1        0.1587
     14 C         139.8640  140.5163  169.5123 C.2     1  UNL1        0.2421
     15 O         138.8607  141.2233  170.3746 O.2     1  UNL1       -0.2734
     16 N         141.2723  140.3342  169.9955 N.am    1  UNL1       -0.2749
     17 C         141.6773  140.8591  171.3411 C.3     1  UNL1        0.1149
     18 C         142.2756  139.6273  169.1332 C.3     1  UNL1        0.1149
     19 C         143.1650  141.8876  159.2778 C.3     1  UNL1        0.2525
     20 O         143.3360  143.0522  160.2075 O.3     1  UNL1       -0.4701
     21 N         141.7109  145.4723  159.4985 N.pl3   1  UNL1       -0.2802
     22 H         142.4683  146.1012  159.4967 H       1  UNL1        0.1552
     23 C         140.8787  145.2970  158.2629 C.ar    1  UNL1        0.2208
     24 N         139.9629  144.1157  158.1368 N.ar    1  UNL1       -0.2111
     25 C         139.1307  143.9405  156.9012 C.ar    1  UNL1        0.1147
     26 C         139.2142  144.9466  155.7918 C.ar    1  UNL1        0.0960
     27 CL        138.3819  144.7714  154.5562 Cl      1  UNL1       -0.0790
     28 C         140.1300  146.1280  155.9179 C.ar    1  UNL1        0.1138
     29 N         140.9622  146.3031  157.1535 N.ar    1  UNL1       -0.2111
     30 C         140.2135  147.1341  154.8085 C.ar    1  UNL1        0.1031
     31 C         140.8721  146.9257  153.4770 C.ar    1  UNL1        0.1196
     32 N         140.7187  148.1880  152.6814 N.ar    1  UNL1       -0.2248
     33 C         139.9652  149.1765  153.5212 C.ar    1  UNL1        0.1479
     34 C         139.5231  150.5856  153.2586 C.ar    1  UNL1        0.0374
     35 C         138.7687  151.3433  154.3106 C.ar    1  UNL1        0.0046
     36 C         138.4565  150.6919  155.6252 C.ar    1  UNL1        0.0191
     37 C         138.8986  149.2828  155.8878 C.ar    1  UNL1        0.0815
     38 N         139.6530  148.5251  154.8358 N.ar    1  UNL1       -0.2874
@<TRIPOS>BOND
     1    19    20    1
     2    20     1    1
     3     1     2   ar
     4     2     3   ar
     5     3     7    1
     6     7     8    1
     7     8     9    1
     8     9    10    1
     9    10    13    1
    10    13    14    1
    11    14    15    2
    12    14    16   am
    13    16    17    1
    14    16    18    1
    15    10    11    1
    16    11    12    1
    17     3     4   ar
    18     4     5   ar
    19     5     6   ar
    20     6    21    1
    21    21    23    1
    22    23    24   ar
    23    24    25   ar
    24    25    26   ar
    25    26    27    1
    26    26    28   ar
    27    28    30    1
    28    30    31   ar
    29    31    32   ar
    30    32    33   ar
    31    33    34   ar
    32    34    35   ar
    33    35    36   ar
    34    36    37   ar
    35    37    38   ar
    36    28    29   ar
    37     6     1   ar
    38    29    23   ar
    39    12     7    1
    40    38    30   ar
    41    38    33   ar
    42    21    22    1
@<TRIPOS>MOLECULE
*****
 38 42 0 0 0
SMALL
GASTEIGER

@<TRIPOS>ATOM
      1 C         143.8248  139.3852  160.7452 C.ar    1  UNL1        0.1533
      2 C         144.2117  140.2518  159.5834 C.ar    1  UNL1        0.0527
      3 C         143.7036  139.9334  158.2084 C.ar    1  UNL1        0.0510
      4 C         142.8088  138.7487  157.9951 C.ar    1  UNL1        0.0160
      5 C         142.4220  137.8822  159.1569 C.ar    1  UNL1        0.0190
      6 C         142.9300  138.2005  160.5319 C.ar    1  UNL1        0.0850
      7 N         144.0905  140.7999  157.0468 N.pl3   1  UNL1       -0.3046
      8 C         145.3684  141.5843  157.0891 C.3     1  UNL1        0.1081
      9 C         145.7553  142.4509  155.9274 C.3     1  UNL1        0.0942
     10 N         144.8644  142.5330  154.7235 N.3     1  UNL1       -0.2620
     11 C         143.5865  141.7486  154.6812 C.3     1  UNL1        0.0942
     12 C         143.1996  140.8821  155.8428 C.3     1  UNL1        0.1081
     13 C         145.2512  143.3996  153.5618 C.3     1  UNL1        0.1587
     14 C         146.6625  143.8902  153.4295 C.2     1  UNL1        0.2421
     15 O         147.0030  145.3036  153.7989 O.2     1  UNL1       -0.2734
     16 N         147.7334  142.9675  152.9277 N.am    1  UNL1       -0.2749
     17 C         149.1447  143.4581  152.7953 C.3     1  UNL1        0.1149
     18 C         147.3929  141.5541  152.5582 C.3     1  UNL1        0.1149
     19 C         144.8520  141.0766  162.4287 C.3     1  UNL1        0.2525
     20 O         144.3329  139.7036  162.1201 O.3     1  UNL1       -0.4701
     21 N         142.5431  137.3339  161.6935 N.pl3   1  UNL1       -0.2802
     22 H         142.9920  136.4689  161.8333 H       1  UNL1        0.1552
     23 C         141.4725  137.7853  162.6422 C.ar    1  UNL1        0.2208
     24 N         141.1397  136.9561  163.8470 N.ar    1  UNL1       -0.2111
     25 C         140.0691  137.4074  164.7957 C.ar    1  UNL1        0.1147
     26 C         139.3312  138.6881  164.5395 C.ar    1  UNL1        0.0960
     27 CL        138.2606  139.1395  165.4882 Cl      1  UNL1       -0.0790
     28 C         139.6641  139.5174  163.3347 C.ar    1  UNL1        0.1138
     29 N         140.7347  139.0660  162.3861 N.ar    1  UNL1       -0.2111
     30 C         138.9263  140.7980  163.0785 C.ar    1  UNL1        0.1031
     31 C         137.9675  141.0533  161.9535 C.ar    1  UNL1        0.1196
     32 N         137.4664  142.4613  162.0822 N.ar    1  UNL1       -0.2248
     33 C         138.1154  143.0761  163.2867 C.ar    1  UNL1        0.1479
     34 C         138.0014  144.4392  163.9023 C.ar    1  UNL1        0.0374
     35 C         138.7896  144.7742  165.1337 C.ar    1  UNL1        0.0046
     36 C         139.6919  143.7463  165.7495 C.ar    1  UNL1        0.0191
     37 C         139.8059  142.3832  165.1339 C.ar    1  UNL1        0.0815
     38 N         139.0177  142.0481  163.9025 N.ar    1  UNL1       -0.2874
@<TRIPOS>BOND
     1    19    20    1
     2    20     1    1
     3     1     2   ar
     4     2     3   ar
     5     3     7    1
     6     7     8    1
     7     8     9    1
     8     9    10    1
     9    10    13    1
    10    13    14    1
    11    14    15    2
    12    14    16   am
    13    16    17    1
    14    16    18    1
    15    10    11    1
    16    11    12    1
    17     3     4   ar
    18     4     5   ar
    19     5     6   ar
    20     6    21    1
    21    21    23    1
    22    23    24   ar
    23    24    25   ar
    24    25    26   ar
    25    26    27    1
    26    26    28   ar
    27    28    30    1
    28    30    31   ar
    29    31    32   ar
    30    32    33   ar
    31    33    34   ar
    32    34    35   ar
    33    35    36   ar
    34    36    37   ar
    35    37    38   ar
    36    28    29   ar
    37     6     1   ar
    38    29    23   ar
    39    12     7    1
    40    38    30   ar
    41    38    33   ar
    42    21    22    1
@<TRIPOS>MOLECULE
*****
 38 42 0 0 0
SMALL
GASTEIGER

@<TRIPOS>ATOM
      1 C         140.2297  141.4056  157.7018 C.ar    1  UNL1        0.1533
      2 C         140.8788  140.1829  157.1238 C.ar    1  UNL1        0.0527
      3 C         140.5258  138.8248  157.6538 C.ar    1  UNL1        0.0510
      4 C         139.5237  138.6892  158.7617 C.ar    1  UNL1        0.0160
      5 C         138.8747  139.9118  159.3397 C.ar    1  UNL1        0.0190
      6 C         139.2276  141.2700  158.8097 C.ar    1  UNL1        0.0850
      7 N         141.1749  137.6023  157.0758 N.pl3   1  UNL1       -0.3046
      8 C         140.4766  136.8177  156.0049 C.3     1  UNL1        0.1081
      9 C         141.1257  135.5951  155.4269 C.3     1  UNL1        0.0942
     10 N         142.4729  135.1573  155.9197 N.3     1  UNL1       -0.2620
     11 C         143.1712  135.9419  156.9906 C.3     1  UNL1        0.0942
     12 C         142.5222  137.1644  157.5686 C.3     1  UNL1        0.1081
     13 C         143.1221  133.9347  155.3417 C.3     1  UNL1        0.1587
     14 C         142.7141  132.5724  155.8188 C.2     1  UNL1        0.2421
     15 O         141.4361  131.9580  155.3297 O.2     1  UNL1       -0.2734
     16 N         143.5841  131.8244  156.7850 N.am    1  UNL1       -0.2749
     17 C         143.1761  130.4621  157.2621 C.3     1  UNL1        0.1149
     18 C         144.8621  132.4387  157.2742 C.3     1  UNL1        0.1149
     19 C         141.6591  143.5710  157.8348 C.3     1  UNL1        0.2525
     20 O         140.5827  142.7637  157.1718 O.3     1  UNL1       -0.4701
     21 N         138.5785  142.4925  159.3877 N.pl3   1  UNL1       -0.2802
     22 H         137.9765  143.0392  158.8328 H       1  UNL1        0.1552
     23 C         138.8466  142.8821  160.8112 C.ar    1  UNL1        0.2208
     24 N         137.7026  143.1230  161.7510 N.ar    1  UNL1       -0.2111
     25 C         137.9707  143.5127  163.1745 C.ar    1  UNL1        0.1147
     26 C         139.3828  143.6614  163.6582 C.ar    1  UNL1        0.0960
     27 CL        139.6508  144.0510  165.0816 Cl      1  UNL1       -0.0790
     28 C         140.5268  143.4205  162.7183 C.ar    1  UNL1        0.1138
     29 N         140.2587  143.0309  161.2949 N.ar    1  UNL1       -0.2111
     30 C         141.9389  143.5692  163.2020 C.ar    1  UNL1        0.1031
     31 C         142.6098  144.8559  163.5818 C.ar    1  UNL1        0.1196
     32 N         144.0135  144.5392  164.0053 N.ar    1  UNL1       -0.2248
     33 C         144.2101  143.0568  163.8872 C.ar    1  UNL1        0.1479
     34 C         145.3910  142.1754  164.1676 C.ar    1  UNL1        0.0374
     35 C         145.2897  140.6946  163.9515 C.ar    1  UNL1        0.0046
     36 C         144.0074  140.0951  163.4550 C.ar    1  UNL1        0.0191
     37 C         142.8266  140.9765  163.1746 C.ar    1  UNL1        0.0815
     38 N         142.9279  142.4573  163.3907 N.ar    1  UNL1       -0.2874
@<TRIPOS>BOND
     1    19    20    1
     2    20     1    1
     3     1     2   ar
     4     2     3   ar
     5     3     7    1
     6     7     8    1
     7     8     9    1
     8     9    10    1
     9    10    13    1
    10    13    14    1
    11    14    15    2
    12    14    16   am
    13    16    17    1
    14    16    18    1
    15    10    11    1
    16    11    12    1
    17     3     4   ar
    18     4     5   ar
    19     5     6   ar
    20     6    21    1
    21    21    23    1
    22    23    24   ar
    23    24    25   ar
    24    25    26   ar
    25    26    27    1
    26    26    28   ar
    27    28    30    1
    28    30    31   ar
    29    31    32   ar
    30    32    33   ar
    31    33    34   ar
    32    34    35   ar
    33    35    36   ar
    34    36    37   ar
    35    37    38   ar
    36    28    29   ar
    37     6     1   ar
    38    29    23   ar
    39    12     7    1
    40    38    30   ar
    41    38    33   ar
    42    21    22    1
@<TRIPOS>MOLECULE
*****
 38 42 0 0 0
SMALL
GASTEIGER

@<TRIPOS>ATOM
      1 C         143.1756  143.5000  163.8229 C.ar    1  UNL1        0.1533
      2 C         143.1763  143.0881  162.3805 C.ar    1  UNL1        0.0527
      3 C         144.2199  142.1380  161.8722 C.ar    1  UNL1        0.0510
      4 C         145.2628  141.5998  162.8063 C.ar    1  UNL1        0.0160
      5 C         145.2622  142.0117  164.2487 C.ar    1  UNL1        0.0190
      6 C         144.2186  142.9618  164.7570 C.ar    1  UNL1        0.0850
      7 N         144.2204  141.7262  160.4299 N.pl3   1  UNL1       -0.3046
      8 C         143.7239  140.3660  160.0382 C.3     1  UNL1        0.1081
      9 C         143.7245  139.9541  158.5958 C.3     1  UNL1        0.0942
     10 N         144.2215  140.9024  157.5453 N.3     1  UNL1       -0.2620
     11 C         144.7180  142.2625  157.9370 C.3     1  UNL1        0.0942
     12 C         144.7174  142.6745  159.3793 C.3     1  UNL1        0.1081
     13 C         144.2220  140.4906  156.1028 C.3     1  UNL1        0.1587
     14 C         144.0287  139.0494  155.7343 C.2     1  UNL1        0.2421
     15 O         145.2113  138.1300  155.6564 O.2     1  UNL1       -0.2734
     16 N         142.6527  138.5277  155.4438 N.am    1  UNL1       -0.2749
     17 C         142.4593  137.0866  155.0753 C.3     1  UNL1        0.1149
     18 C         141.4701  139.4471  155.5218 C.3     1  UNL1        0.1149
     19 C         140.6933  144.0284  164.3786 C.3     1  UNL1        0.2525
     20 O         142.1321  144.4500  164.3311 O.3     1  UNL1       -0.4701
     21 N         144.2180  143.3736  166.1993 N.pl3   1  UNL1       -0.2802
     22 H         144.7178  144.1729  166.4832 H       1  UNL1        0.1552
     23 C         143.4560  142.5676  167.2092 C.ar    1  UNL1        0.2208
     24 N         143.8433  142.6202  168.6573 N.ar    1  UNL1       -0.2111
     25 C         143.0813  141.8143  169.6672 C.ar    1  UNL1        0.1147
     26 C         141.9321  140.9557  169.2289 C.ar    1  UNL1        0.0960
     27 CL        141.1701  140.1498  170.2387 Cl      1  UNL1       -0.0790
     28 C         141.5448  140.9032  167.7806 C.ar    1  UNL1        0.1138
     29 N         142.3068  141.7091  166.7708 N.ar    1  UNL1       -0.2111
     30 C         140.3955  140.0446  167.3423 C.ar    1  UNL1        0.1031
     31 C         139.1012  139.8613  168.0778 C.ar    1  UNL1        0.1196
     32 N         138.2446  138.9221  167.2816 N.ar    1  UNL1       -0.2248
     33 C         139.0095  138.5249  166.0539 C.ar    1  UNL1        0.1479
     34 C         138.6673  137.6211  164.9067 C.ar    1  UNL1        0.0374
     35 C         139.6544  137.4112  163.7971 C.ar    1  UNL1        0.0046
     36 C         140.9838  138.1050  163.8346 C.ar    1  UNL1        0.0191
     37 C         141.3260  139.0087  164.9818 C.ar    1  UNL1        0.0815
     38 N         140.3389  139.2187  166.0914 N.ar    1  UNL1       -0.2874
@<TRIPOS>BOND
     1    19    20    1
     2    20     1    1
     3     1     2   ar
     4     2     3   ar
     5     3     7    1
     6     7     8    1
     7     8     9    1
     8     9    10    1
     9    10    13    1
    10    13    14    1
    11    14    15    2
    12    14    16   am
    13    16    17    1
    14    16    18    1
    15    10    11    1
    16    11    12    1
    17     3     4   ar
    18     4     5   ar
    19     5     6   ar
    20     6    21    1
    21    21    23    1
    22    23    24   ar
    23    24    25   ar
    24    25    26   ar
    25    26    27    1
    26    26    28   ar
    27    28    30    1
    28    30    31   ar
    29    31    32   ar
    30    32    33   ar
    31    33    34   ar
    32    34    35   ar
    33    35    36   ar
    34    36    37   ar
    35    37    38   ar
    36    28    29   ar
    37     6     1   ar
    38    29    23   ar
    39    12     7    1
    40    38    30   ar
    41    38    33   ar
    42    21    22    1
@<TRIPOS>MOLECULE
*****
 38 42 0 0 0
SMALL
GASTEIGER

@<TRIPOS>ATOM
      1 C         139.6800  140.5640  160.7533 C.ar    1  UNL1        0.1533
      2 C         139.7993  140.7219  162.2403 C.ar    1  UNL1        0.0527
      3 C         139.6563  139.5266  163.1352 C.ar    1  UNL1        0.0510
      4 C         139.3940  138.1735  162.5433 C.ar    1  UNL1        0.0160
      5 C         139.2747  138.0157  161.0564 C.ar    1  UNL1        0.0190
      6 C         139.4177  139.2110  160.1613 C.ar    1  UNL1        0.0850
      7 N         139.7756  139.6845  164.6221 N.pl3   1  UNL1       -0.3046
      8 C         138.6129  139.3470  165.5077 C.3     1  UNL1        0.1081
      9 C         138.7321  139.5049  166.9947 C.3     1  UNL1        0.0942
     10 N         140.0139  140.0002  167.5958 N.3     1  UNL1       -0.2620
     11 C         141.1766  140.3376  166.7102 C.3     1  UNL1        0.0942
     12 C         141.0574  140.1798  165.2233 C.3     1  UNL1        0.1081
     13 C         140.1332  140.1581  169.0828 C.3     1  UNL1        0.1587
     14 C         141.3638  140.7790  169.6746 C.2     1  UNL1        0.2421
     15 O         142.4778  139.9074  170.1739 O.2     1  UNL1       -0.2734
     16 N         141.4803  142.2716  169.7673 N.am    1  UNL1       -0.2749
     17 C         142.7108  142.8926  170.3591 C.3     1  UNL1        0.1149
     18 C         140.3663  143.1433  169.2681 C.3     1  UNL1        0.1149
     19 C         138.6042  142.5075  159.4058 C.3     1  UNL1        0.2525
     20 O         139.8230  141.7593  159.8584 O.3     1  UNL1       -0.4701
     21 N         139.2984  139.0531  158.6745 N.pl3   1  UNL1       -0.2802
     22 H         138.4354  139.2164  158.2298 H       1  UNL1        0.1552
     23 C         140.4940  138.6465  157.8651 C.ar    1  UNL1        0.2208
     24 N         141.5993  139.6290  157.6142 N.ar    1  UNL1       -0.2111
     25 C         142.7949  139.2224  156.8048 C.ar    1  UNL1        0.1147
     26 C         142.8853  137.8332  156.2462 C.ar    1  UNL1        0.0960
     27 CL        144.0809  137.4266  155.4368 Cl      1  UNL1       -0.0790
     28 C         141.7799  136.8506  156.4971 C.ar    1  UNL1        0.1138
     29 N         140.5844  137.2573  157.3065 N.ar    1  UNL1       -0.2111
     30 C         141.8703  135.4614  155.9385 C.ar    1  UNL1        0.1031
     31 C         141.0994  134.9306  154.7664 C.ar    1  UNL1        0.1196
     32 N         141.5001  133.5003  154.5575 N.ar    1  UNL1       -0.2248
     33 C         142.5186  133.1471  155.6005 C.ar    1  UNL1        0.1479
     34 C         143.2672  131.8785  155.8833 C.ar    1  UNL1        0.0374
     35 C         144.2447  131.8219  157.0197 C.ar    1  UNL1        0.0046
     36 C         144.4734  133.0340  157.8733 C.ar    1  UNL1        0.0191
     37 C         143.7248  134.3026  157.5904 C.ar    1  UNL1        0.0815
     38 N         142.7474  134.3592  156.4541 N.ar    1  UNL1       -0.2874
@<TRIPOS>BOND
     1    19    20    1
     2    20     1    1
     3     1     2   ar
     4     2     3   ar
     5     3     7    1
     6     7     8    1
     7     8     9    1
     8     9    10    1
     9    10    13    1
    10    13    14    1
    11    14    15    2
    12    14    16   am
    13    16    17    1
    14    16    18    1
    15    10    11    1
    16    11    12    1
    17     3     4   ar
    18     4     5   ar
    19     5     6   ar
    20     6    21    1
    21    21    23    1
    22    23    24   ar
    23    24    25   ar
    24    25    26   ar
    25    26    27    1
    26    26    28   ar
    27    28    30    1
    28    30    31   ar
    29    31    32   ar
    30    32    33   ar
    31    33    34   ar
    32    34    35   ar
    33    35    36   ar
    34    36    37   ar
    35    37    38   ar
    36    28    29   ar
    37     6     1   ar
    38    29    23   ar
    39    12     7    1
    40    38    30   ar
    41    38    33   ar
    42    21    22    1
@<TRIPOS>MOLECULE
*****
 38 42 0 0 0
SMALL
GASTEIGER

@<TRIPOS>ATOM
      1 C         140.7347  141.8404  158.9564 C.ar    1  UNL1        0.1533
      2 C         141.3116  140.6328  158.2789 C.ar    1  UNL1        0.0527
      3 C         140.4558  139.4230  158.0459 C.ar    1  UNL1        0.0510
      4 C         139.0232  139.4209  158.4905 C.ar    1  UNL1        0.0160
      5 C         138.4464  140.6285  159.1680 C.ar    1  UNL1        0.0190
      6 C         139.3021  141.8383  159.4010 C.ar    1  UNL1        0.0850
      7 N         141.0327  138.2155  157.3684 N.pl3   1  UNL1       -0.3046
      8 C         142.3420  137.6493  157.8323 C.3     1  UNL1        0.1081
      9 C         142.9190  136.4417  157.1548 C.3     1  UNL1        0.0942
     10 N         142.1866  135.8005  156.0136 N.3     1  UNL1       -0.2620
     11 C         140.8773  136.3667  155.5498 C.3     1  UNL1        0.0942
     12 C         140.3004  137.5742  156.2272 C.3     1  UNL1        0.1081
     13 C         142.7636  134.5929  155.3360 C.3     1  UNL1        0.1587
     14 C         142.2069  133.2311  155.6289 C.2     1  UNL1        0.2421
     15 O         142.4642  132.5856  156.9582 O.2     1  UNL1       -0.2734
     16 N         141.3930  132.5148  154.5924 N.am    1  UNL1       -0.2749
     17 C         140.8363  131.1530  154.8852 C.3     1  UNL1        0.1149
     18 C         141.1356  133.1602  153.2630 C.3     1  UNL1        0.1149
     19 C         142.6493  143.0265  160.2515 C.3     1  UNL1        0.2525
     20 O         141.5905  143.0501  159.1893 O.3     1  UNL1       -0.4701
     21 N         138.7252  143.0458  160.0784 N.pl3   1  UNL1       -0.2802
     22 H         138.2145  143.7061  159.5565 H       1  UNL1        0.1552
     23 C         138.9263  143.2473  161.5512 C.ar    1  UNL1        0.2208
     24 N         138.6625  144.5892  162.1674 N.ar    1  UNL1       -0.2111
     25 C         138.8637  144.7907  163.6401 C.ar    1  UNL1        0.1147
     26 C         139.3286  143.6504  164.4966 C.ar    1  UNL1        0.0960
     27 CL        139.5297  143.8519  165.9693 Cl      1  UNL1       -0.0790
     28 C         139.5924  142.3084  163.8803 C.ar    1  UNL1        0.1138
     29 N         139.3913  142.1070  162.4076 N.ar    1  UNL1       -0.2111
     30 C         140.0574  141.1681  164.7367 C.ar    1  UNL1        0.1031
     31 C         139.2180  140.4007  165.7148 C.ar    1  UNL1        0.1196
     32 N         140.0852  139.3533  166.3480 N.ar    1  UNL1       -0.2248
     33 C         141.4605  139.4734  165.7613 C.ar    1  UNL1        0.1479
     34 C         142.7262  138.7063  166.0051 C.ar    1  UNL1        0.0374
     35 C         143.9747  139.0609  165.2532 C.ar    1  UNL1        0.0046
     36 C         143.9575  140.1825  164.2573 C.ar    1  UNL1        0.0191
     37 C         142.6918  140.9496  164.0135 C.ar    1  UNL1        0.0815
     38 N         141.4433  140.5950  164.7654 N.ar    1  UNL1       -0.2874
@<TRIPOS>BOND
     1    19    20    1
     2    20     1    1
     3     1     2   ar
     4     2     3   ar
     5     3     7    1
     6     7     8    1
     7     8     9    1
     8     9    10    1
     9    10    13    1
    10    13    14    1
    11    14    15    2
    12    14    16   am
    13    16    17    1
    14    16    18    1
    15    10    11    1
    16    11    12    1
    17     3     4   ar
    18     4     5   ar
    19     5     6   ar
    20     6    21    1
    21    21    23    1
    22    23    24   ar
    23    24    25   ar
    24    25    26   ar
    25    26    27    1
    26    26    28   ar
    27    28    30    1
    28    30    31   ar
    29    31    32   ar
    30    32    33   ar
    31    33    34   ar
    32    34    35   ar
    33    35    36   ar
    34    36    37   ar
    35    37    38   ar
    36    28    29   ar
    37     6     1   ar
    38    29    23   ar
    39    12     7    1
    40    38    30   ar
    41    38    33   ar
    42    21    22    1
