@<TRIPOS>MOLECULE
*****
 30 33 0 0 0
SMALL
GASTEIGER

@<TRIPOS>ATOM
      1 C         142.4409  139.8537  163.3498 C.ar    1  UNL1        0.0019
      2 C         143.7347  139.8453  162.5908 C.ar    1  UNL1        0.0002
      3 C         143.7430  139.5205  161.1265 C.ar    1  UNL1        0.0042
      4 C         142.4576  139.2041  160.4211 C.ar    1  UNL1        0.0497
      5 C         141.1638  139.2125  161.1800 C.ar    1  UNL1       -0.0161
      6 C         141.1555  139.5373  162.6444 C.ar    1  UNL1       -0.0040
      7 C         139.8784  138.8961  160.4746 C.3     1  UNL1        0.0480
      8 C         139.8868  138.5712  159.0102 C.3     1  UNL1        0.0984
      9 N         141.1806  138.5628  158.2512 N.am    1  UNL1       -0.2743
     10 C         142.4660  138.8792  158.9566 C.2     1  UNL1        0.2488
     11 O         143.7598  138.8708  158.1977 O.2     1  UNL1       -0.2699
     12 C         142.4156  140.8282  167.7430 C.ar    1  UNL1        0.0558
     13 C         142.3024  141.9287  166.7300 C.ar    1  UNL1        0.0047
     14 C         142.3108  141.6038  165.2656 C.ar    1  UNL1        0.0024
     15 C         142.4325  140.1786  164.8142 C.ar    1  UNL1        0.0275
     16 C         142.5457  139.0781  165.8272 C.ar    1  UNL1        0.1402
     17 F         142.6673  137.6527  165.3757 F       1  UNL1       -0.2042
     18 C         142.5373  139.4028  167.2915 C.ar    1  UNL1        0.0341
     19 C         141.1054  141.4824  171.4315 C.3     1  UNL1        0.1152
     20 N         141.1139  141.1577  169.9671 N.am    1  UNL1       -0.2726
     21 C         139.8290  140.8376  169.2624 C.3     1  UNL1        0.1152
     22 C         142.4072  141.1529  169.2074 C.2     1  UNL1        0.2492
     23 O         143.6921  141.4730  169.9120 O.2     1  UNL1       -0.2699
     24 C         141.1890  138.2380  156.7869 C.3     1  UNL1        0.1110
     25 C         140.7234  136.8926  156.3144 C.3     1  UNL1        0.0939
     26 N         141.7079  135.7726  156.1524 N.3     1  UNL1       -0.2712
     27 C         141.5597  134.5941  155.2362 C.3     1  UNL1        0.0722
     28 C         142.7737  133.7275  155.3956 C.3     1  UNL1        0.0188
     29 C         143.6721  134.3705  156.4103 C.3     1  UNL1        0.0188
     30 C         143.0134  135.6344  156.8780 C.3     1  UNL1        0.0722
@<TRIPOS>BOND
     1    19    20    1
     2    20    21    1
     3    20    22   am
     4    22    23    2
     5    22    12    1
     6    12    13   ar
     7    13    14   ar
     8    14    15   ar
     9    15     1    1
    10     1     2   ar
    11     2     3   ar
    12     3     4   ar
    13     4     5   ar
    14     5     6   ar
    15     5     7    1
    16     7     8    1
    17     8     9    1
    18     9    24    1
    19    24    25    1
    20    25    26    1
    21    26    27    1
    22    27    28    1
    23    28    29    1
    24    29    30    1
    25     9    10   am
    26    10    11    2
    27    15    16   ar
    28    16    17    1
    29    16    18   ar
    30    18    12   ar
    31     6     1   ar
    32    30    26    1
    33    10     4    1
@<TRIPOS>MOLECULE
*****
 30 33 0 0 0
SMALL
GASTEIGER

@<TRIPOS>ATOM
      1 C         140.3232  138.5776  162.6917 C.ar    1  UNL1        0.0019
      2 C         139.2222  137.7103  163.2260 C.ar    1  UNL1        0.0002
      3 C         138.7434  137.8898  164.6362 C.ar    1  UNL1        0.0042
      4 C         139.3656  138.9366  165.5120 C.ar    1  UNL1        0.0497
      5 C         140.4666  139.8040  164.9776 C.ar    1  UNL1       -0.0161
      6 C         140.9454  139.6245  163.5675 C.ar    1  UNL1       -0.0040
      7 C         141.0888  140.8508  165.8534 C.3     1  UNL1        0.0480
      8 C         140.6100  141.0303  167.2635 C.3     1  UNL1        0.0984
      9 N         139.5089  140.1630  167.7979 N.am    1  UNL1       -0.2743
     10 C         138.8868  139.1161  166.9222 C.2     1  UNL1        0.2488
     11 O         137.7858  138.2488  167.4565 O.2     1  UNL1       -0.2699
     12 C         141.7598  138.0392  158.4612 C.ar    1  UNL1        0.0558
     13 C         140.3521  138.4857  158.7242 C.ar    1  UNL1        0.0047
     14 C         139.8733  138.6652  160.1344 C.ar    1  UNL1        0.0024
     15 C         140.8020  138.3981  161.2815 C.ar    1  UNL1        0.0275
     16 C         142.2097  137.9516  161.0186 C.ar    1  UNL1        0.1402
     17 F         143.1385  137.6845  162.1658 F       1  UNL1       -0.2042
     18 C         142.6886  137.7721  159.6085 C.ar    1  UNL1        0.0341
     19 C         143.5233  138.7588  154.9796 C.3     1  UNL1        0.1152
     20 N         143.0444  138.9382  156.3897 N.am    1  UNL1       -0.2726
     21 C         143.3713  140.1962  157.1384 C.3     1  UNL1        0.1152
     22 C         142.2386  137.8597  157.0511 C.2     1  UNL1        0.2492
     23 O         141.9118  136.6017  156.3024 O.2     1  UNL1       -0.2699
     24 C         139.0302  140.3425  169.2081 C.3     1  UNL1        0.1110
     25 C         140.0068  140.2833  170.3450 C.3     1  UNL1        0.0939
     26 N         141.2525  141.1182  170.3079 N.3     1  UNL1       -0.2712
     27 C         141.3252  142.6027  170.5104 C.3     1  UNL1        0.0722
     28 C         142.7618  143.0171  170.3894 C.3     1  UNL1        0.0188
     29 C         143.5769  141.7887  170.1120 C.3     1  UNL1        0.0188
     30 C         142.6440  140.6151  170.0617 C.3     1  UNL1        0.0722
@<TRIPOS>BOND
     1    19    20    1
     2    20    21    1
     3    20    22   am
     4    22    23    2
     5    22    12    1
     6    12    13   ar
     7    13    14   ar
     8    14    15   ar
     9    15     1    1
    10     1     2   ar
    11     2     3   ar
    12     3     4   ar
    13     4     5   ar
    14     5     6   ar
    15     5     7    1
    16     7     8    1
    17     8     9    1
    18     9    24    1
    19    24    25    1
    20    25    26    1
    21    26    27    1
    22    27    28    1
    23    28    29    1
    24    29    30    1
    25     9    10   am
    26    10    11    2
    27    15    16   ar
    28    16    17    1
    29    16    18   ar
    30    18    12   ar
    31     6     1   ar
    32    30    26    1
    33    10     4    1
@<TRIPOS>MOLECULE
*****
 30 33 0 0 0
SMALL
GASTEIGER

@<TRIPOS>ATOM
      1 C         142.4761  139.6714  163.2633 C.ar    1  UNL1        0.0019
      2 C         143.7634  139.7400  162.4965 C.ar    1  UNL1        0.0002
      3 C         143.7737  139.4648  161.0220 C.ar    1  UNL1        0.0042
      4 C         142.4966  139.1210  160.3143 C.ar    1  UNL1        0.0497
      5 C         141.2092  139.0524  161.0811 C.ar    1  UNL1       -0.0161
      6 C         141.1990  139.3276  162.5556 C.ar    1  UNL1       -0.0040
      7 C         139.9321  138.7086  160.3735 C.3     1  UNL1        0.0480
      8 C         139.9424  138.4333  158.8990 C.3     1  UNL1        0.0984
      9 N         141.2297  138.5020  158.1321 N.am    1  UNL1       -0.2743
     10 C         142.5068  138.8458  158.8398 C.2     1  UNL1        0.2488
     11 O         143.7942  138.9144  158.0730 O.2     1  UNL1       -0.2699
     12 C         142.4453  140.4971  167.6868 C.ar    1  UNL1        0.0558
     13 C         142.7732  139.1230  167.1827 C.ar    1  UNL1        0.0047
     14 C         142.7834  138.8477  165.7081 C.ar    1  UNL1        0.0024
     15 C         142.4658  139.9466  164.7378 C.ar    1  UNL1        0.0275
     16 C         142.1379  141.3208  165.2420 C.ar    1  UNL1        0.1402
     17 F         141.8203  142.4197  164.2716 F       1  UNL1       -0.2042
     18 C         142.1276  141.5960  166.7165 C.ar    1  UNL1        0.0341
     19 C         141.1360  140.9865  171.4012 C.3     1  UNL1        0.1152
     20 N         141.1464  140.7113  169.9266 N.am    1  UNL1       -0.2726
     21 C         139.8681  140.3749  169.2175 C.3     1  UNL1        0.1152
     22 C         142.4350  140.7724  169.1613 C.2     1  UNL1        0.2492
     23 O         143.7133  141.1087  169.8704 O.2     1  UNL1       -0.2699
     24 C         141.2400  138.2268  156.6576 C.3     1  UNL1        0.1110
     25 C         140.7876  136.8934  156.1404 C.3     1  UNL1        0.0939
     26 N         141.7534  135.7475  156.0745 N.3     1  UNL1       -0.2712
     27 C         143.0371  135.6313  156.8418 C.3     1  UNL1        0.0722
     28 C         143.6822  134.3287  156.4713 C.3     1  UNL1        0.0188
     29 C         142.7972  133.6400  155.4750 C.3     1  UNL1        0.0188
     30 C         141.6052  134.5169  155.2298 C.3     1  UNL1        0.0722
@<TRIPOS>BOND
     1    19    20    1
     2    20    21    1
     3    20    22   am
     4    22    23    2
     5    22    12    1
     6    12    13   ar
     7    13    14   ar
     8    14    15   ar
     9    15     1    1
    10     1     2   ar
    11     2     3   ar
    12     3     4   ar
    13     4     5   ar
    14     5     6   ar
    15     5     7    1
    16     7     8    1
    17     8     9    1
    18     9    24    1
    19    24    25    1
    20    25    26    1
    21    26    27    1
    22    27    28    1
    23    28    29    1
    24    29    30    1
    25     9    10   am
    26    10    11    2
    27    15    16   ar
    28    16    17    1
    29    16    18   ar
    30    18    12   ar
    31     6     1   ar
    32    30    26    1
    33    10     4    1
@<TRIPOS>MOLECULE
*****
 30 33 0 0 0
SMALL
GASTEIGER

@<TRIPOS>ATOM
      1 C         140.4909  142.6900  163.0821 C.ar    1  UNL1        0.0019
      2 C         139.5291  141.7206  162.4616 C.ar    1  UNL1        0.0002
      3 C         139.1146  141.8879  161.0298 C.ar    1  UNL1        0.0042
      4 C         139.6619  143.0246  160.2185 C.ar    1  UNL1        0.0497
      5 C         140.6237  143.9941  160.8390 C.ar    1  UNL1       -0.0161
      6 C         141.0382  143.8268  162.2708 C.ar    1  UNL1       -0.0040
      7 C         141.1711  145.1308  160.0276 C.3     1  UNL1        0.0480
      8 C         140.7566  145.2981  158.5958 C.3     1  UNL1        0.0984
      9 N         139.7947  144.3287  157.9752 N.am    1  UNL1       -0.2743
     10 C         139.2474  143.1919  158.7866 C.2     1  UNL1        0.2488
     11 O         138.2855  142.2225  158.1661 O.2     1  UNL1       -0.2699
     12 C         141.7345  142.1882  167.3777 C.ar    1  UNL1        0.0558
     13 C         142.5828  141.6180  166.2799 C.ar    1  UNL1        0.0047
     14 C         142.1682  141.7853  164.8480 C.ar    1  UNL1        0.0024
     15 C         140.9055  142.5227  164.5140 C.ar    1  UNL1        0.0275
     16 C         140.0572  143.0929  165.6119 C.ar    1  UNL1        0.1402
     17 F         138.7944  143.8304  165.2778 F       1  UNL1       -0.2042
     18 C         140.4717  142.9257  167.0437 C.ar    1  UNL1        0.0341
     19 C         141.9463  140.7736  171.0796 C.3     1  UNL1        0.1152
     20 N         141.5318  140.9409  169.6477 N.am    1  UNL1       -0.2726
     21 C         140.5002  140.0281  169.0540 C.3     1  UNL1        0.1152
     22 C         142.1490  142.0210  168.8096 C.2     1  UNL1        0.2492
     23 O         143.1806  142.9338  169.4032 O.2     1  UNL1       -0.2699
     24 C         139.3802  144.4960  156.5434 C.3     1  UNL1        0.1110
     25 C         140.2292  145.3027  155.6062 C.3     1  UNL1        0.0939
     26 N         139.8589  146.7221  155.2922 N.3     1  UNL1       -0.2712
     27 C         138.9686  147.6040  156.1167 C.3     1  UNL1        0.0722
     28 C         138.8734  148.9356  155.4327 C.3     1  UNL1        0.0188
     29 C         139.7047  148.8766  154.1855 C.3     1  UNL1        0.0188
     30 C         140.3138  147.5085  154.0987 C.3     1  UNL1        0.0722
@<TRIPOS>BOND
     1    19    20    1
     2    20    21    1
     3    20    22   am
     4    22    23    2
     5    22    12    1
     6    12    13   ar
     7    13    14   ar
     8    14    15   ar
     9    15     1    1
    10     1     2   ar
    11     2     3   ar
    12     3     4   ar
    13     4     5   ar
    14     5     6   ar
    15     5     7    1
    16     7     8    1
    17     8     9    1
    18     9    24    1
    19    24    25    1
    20    25    26    1
    21    26    27    1
    22    27    28    1
    23    28    29    1
    24    29    30    1
    25     9    10   am
    26    10    11    2
    27    15    16   ar
    28    16    17    1
    29    16    18   ar
    30    18    12   ar
    31     6     1   ar
    32    30    26    1
    33    10     4    1
@<TRIPOS>MOLECULE
*****
 30 33 0 0 0
SMALL
GASTEIGER

@<TRIPOS>ATOM
      1 C         139.3271  140.2998  163.5774 C.ar    1  UNL1        0.0019
      2 C         138.0456  140.7183  162.9196 C.ar    1  UNL1        0.0002
      3 C         137.8555  140.5091  161.4465 C.ar    1  UNL1        0.0042
      4 C         138.9470  139.8815  160.6312 C.ar    1  UNL1        0.0497
      5 C         140.2285  139.4630  161.2889 C.ar    1  UNL1       -0.0161
      6 C         140.4185  139.6722  162.7620 C.ar    1  UNL1       -0.0040
      7 C         141.3199  138.8354  160.4735 C.3     1  UNL1        0.0480
      8 C         141.1299  138.6262  159.0004 C.3     1  UNL1        0.0984
      9 N         139.8483  139.0447  158.3426 N.am    1  UNL1       -0.2743
     10 C         138.7569  139.6723  159.1580 C.2     1  UNL1        0.2488
     11 O         137.4754  140.0908  158.5002 O.2     1  UNL1       -0.2699
     12 C         139.8973  140.9272  167.9968 C.ar    1  UNL1        0.0558
     13 C         140.3010  141.9996  167.0288 C.ar    1  UNL1        0.0047
     14 C         140.1109  141.7905  165.5557 C.ar    1  UNL1        0.0024
     15 C         139.5172  140.5090  165.0505 C.ar    1  UNL1        0.0275
     16 C         139.1135  139.4366  166.0185 C.ar    1  UNL1        0.1402
     17 F         138.5198  138.1550  165.5133 F       1  UNL1       -0.2042
     18 C         139.3036  139.6457  167.4916 C.ar    1  UNL1        0.0341
     19 C         141.6446  141.2222  171.5479 C.3     1  UNL1        0.1152
     20 N         141.4545  141.0130  170.0747 N.am    1  UNL1       -0.2726
     21 C         142.6315  140.6807  169.2063 C.3     1  UNL1        0.1152
     22 C         140.0874  141.1363  169.4700 C.2     1  UNL1        0.2492
     23 O         138.9103  141.4687  170.3383 O.2     1  UNL1       -0.2699
     24 C         139.6583  138.8355  156.8695 C.3     1  UNL1        0.1110
     25 C         140.8275  138.4594  156.0084 C.3     1  UNL1        0.0939
     26 N         141.1570  137.0138  155.7808 N.3     1  UNL1       -0.2712
     27 C         142.2545  136.2433  156.4529 C.3     1  UNL1        0.0722
     28 C         142.2226  134.8382  155.9287 C.3     1  UNL1        0.0188
     29 C         141.1054  134.7404  154.9325 C.3     1  UNL1        0.0188
     30 C         140.4468  136.0850  154.8411 C.3     1  UNL1        0.0722
@<TRIPOS>BOND
     1    19    20    1
     2    20    21    1
     3    20    22   am
     4    22    23    2
     5    22    12    1
     6    12    13   ar
     7    13    14   ar
     8    14    15   ar
     9    15     1    1
    10     1     2   ar
    11     2     3   ar
    12     3     4   ar
    13     4     5   ar
    14     5     6   ar
    15     5     7    1
    16     7     8    1
    17     8     9    1
    18     9    24    1
    19    24    25    1
    20    25    26    1
    21    26    27    1
    22    27    28    1
    23    28    29    1
    24    29    30    1
    25     9    10   am
    26    10    11    2
    27    15    16   ar
    28    16    17    1
    29    16    18   ar
    30    18    12   ar
    31     6     1   ar
    32    30    26    1
    33    10     4    1
@<TRIPOS>MOLECULE
*****
 30 33 0 0 0
SMALL
GASTEIGER

@<TRIPOS>ATOM
      1 C         139.2138  140.4749  163.5008 C.ar    1  UNL1        0.0019
      2 C         137.8340  140.6560  162.9410 C.ar    1  UNL1        0.0002
      3 C         137.5946  140.4937  161.4691 C.ar    1  UNL1        0.0042
      4 C         138.7350  140.1503  160.5572 C.ar    1  UNL1        0.0497
      5 C         140.1147  139.9692  161.1170 C.ar    1  UNL1       -0.0161
      6 C         140.3541  140.1315  162.5888 C.ar    1  UNL1       -0.0040
      7 C         141.2551  139.6257  160.2051 C.3     1  UNL1        0.0480
      8 C         141.0157  139.4634  158.7332 C.3     1  UNL1        0.0984
      9 N         139.6359  139.6446  158.1733 N.am    1  UNL1       -0.2743
     10 C         138.4955  139.9880  159.0853 C.2     1  UNL1        0.2488
     11 O         137.1158  140.1691  158.5254 O.2     1  UNL1       -0.2699
     12 C         139.9321  140.9618  167.9164 C.ar    1  UNL1        0.0558
     13 C         140.3071  142.0631  166.9696 C.ar    1  UNL1        0.0047
     14 C         140.0677  141.9008  165.4977 C.ar    1  UNL1        0.0024
     15 C         139.4532  140.6372  164.9727 C.ar    1  UNL1        0.0275
     16 C         139.0782  139.5359  165.9195 C.ar    1  UNL1        0.1402
     17 F         138.4637  138.2722  165.3944 F       1  UNL1       -0.2042
     18 C         139.3176  139.6981  167.3913 C.ar    1  UNL1        0.0341
     19 C         141.7691  141.0103  171.4339 C.3     1  UNL1        0.1152
     20 N         141.5296  140.8480  169.9620 N.am    1  UNL1       -0.2726
     21 C         142.6483  140.4098  169.0640 C.3     1  UNL1        0.1152
     22 C         140.1715  141.1240  169.3882 C.2     1  UNL1        0.2492
     23 O         139.0528  141.5623  170.2863 O.2     1  UNL1       -0.2699
     24 C         139.3965  139.4822  156.7015 C.3     1  UNL1        0.1110
     25 C         139.4801  140.6723  155.7923 C.3     1  UNL1        0.0939
     26 N         138.2971  141.5812  155.6358 N.3     1  UNL1       -0.2712
     27 C         136.9445  141.1870  155.1209 C.3     1  UNL1        0.0722
     28 C         136.0704  142.4060  155.1336 C.3     1  UNL1        0.0188
     29 C         136.8829  143.5536  155.6563 C.3     1  UNL1        0.0188
     30 C         138.2590  143.0438  155.9667 C.3     1  UNL1        0.0722
@<TRIPOS>BOND
     1    19    20    1
     2    20    21    1
     3    20    22   am
     4    22    23    2
     5    22    12    1
     6    12    13   ar
     7    13    14   ar
     8    14    15   ar
     9    15     1    1
    10     1     2   ar
    11     2     3   ar
    12     3     4   ar
    13     4     5   ar
    14     5     6   ar
    15     5     7    1
    16     7     8    1
    17     8     9    1
    18     9    24    1
    19    24    25    1
    20    25    26    1
    21    26    27    1
    22    27    28    1
    23    28    29    1
    24    29    30    1
    25     9    10   am
    26    10    11    2
    27    15    16   ar
    28    16    17    1
    29    16    18   ar
    30    18    12   ar
    31     6     1   ar
    32    30    26    1
    33    10     4    1
@<TRIPOS>MOLECULE
*****
 30 33 0 0 0
SMALL
GASTEIGER

@<TRIPOS>ATOM
      1 C         141.8449  143.6800  163.0797 C.ar    1  UNL1        0.0019
      2 C         140.7896  144.6876  162.7321 C.ar    1  UNL1        0.0002
      3 C         140.6144  145.1299  161.3096 C.ar    1  UNL1        0.0042
      4 C         141.4947  144.5646  160.2346 C.ar    1  UNL1        0.0497
      5 C         142.5500  143.5570  160.5821 C.ar    1  UNL1       -0.0161
      6 C         142.7252  143.1147  162.0047 C.ar    1  UNL1       -0.0040
      7 C         143.4303  142.9916  159.5072 C.3     1  UNL1        0.0480
      8 C         143.2551  143.4339  158.0846 C.3     1  UNL1        0.0984
      9 N         142.1997  144.4416  157.7370 N.am    1  UNL1       -0.2743
     10 C         141.3195  145.0069  158.8120 C.2     1  UNL1        0.2488
     11 O         140.2641  146.0146  158.4644 O.2     1  UNL1       -0.2699
     12 C         142.3705  142.3530  167.3474 C.ar    1  UNL1        0.0558
     13 C         140.9944  142.4663  166.7613 C.ar    1  UNL1        0.0047
     14 C         140.8192  142.9087  165.3387 C.ar    1  UNL1        0.0024
     15 C         142.0201  143.2377  164.5023 C.ar    1  UNL1        0.0275
     16 C         143.3962  143.1243  165.0884 C.ar    1  UNL1        0.1402
     17 F         144.5971  143.4533  164.2519 F       1  UNL1       -0.2042
     18 C         143.5714  142.6820  166.5109 C.ar    1  UNL1        0.0341
     19 C         142.8571  140.0093  170.5128 C.3     1  UNL1        0.1152
     20 N         142.6819  140.4517  169.0902 N.am    1  UNL1       -0.2726
     21 C         142.6428  139.4350  167.9881 C.3     1  UNL1        0.1152
     22 C         142.5457  141.9107  168.7699 C.2     1  UNL1        0.2492
     23 O         142.5848  142.9274  169.8721 O.2     1  UNL1       -0.2699
     24 C         142.0246  144.8839  156.3145 C.3     1  UNL1        0.1110
     25 C         141.2354  144.0396  155.3583 C.3     1  UNL1        0.0939
     26 N         139.7362  144.0875  155.3767 N.3     1  UNL1       -0.2712
     27 C         138.8761  145.0627  154.6289 C.3     1  UNL1        0.0722
     28 C         137.4423  144.7466  154.9362 C.3     1  UNL1        0.0188
     29 C         137.4164  143.5761  155.8739 C.3     1  UNL1        0.0188
     30 C         138.8341  143.1688  156.1462 C.3     1  UNL1        0.0722
@<TRIPOS>BOND
     1    19    20    1
     2    20    21    1
     3    20    22   am
     4    22    23    2
     5    22    12    1
     6    12    13   ar
     7    13    14   ar
     8    14    15   ar
     9    15     1    1
    10     1     2   ar
    11     2     3   ar
    12     3     4   ar
    13     4     5   ar
    14     5     6   ar
    15     5     7    1
    16     7     8    1
    17     8     9    1
    18     9    24    1
    19    24    25    1
    20    25    26    1
    21    26    27    1
    22    27    28    1
    23    28    29    1
    24    29    30    1
    25     9    10   am
    26    10    11    2
    27    15    16   ar
    28    16    17    1
    29    16    18   ar
    30    18    12   ar
    31     6     1   ar
    32    30    26    1
    33    10     4    1
@<TRIPOS>MOLECULE
*****
 30 33 0 0 0
SMALL
GASTEIGER

@<TRIPOS>ATOM
      1 C         140.7951  139.3972  163.0603 C.ar    1  UNL1        0.0019
      2 C         139.6978  138.6393  162.3737 C.ar    1  UNL1        0.0002
      3 C         139.7963  138.3412  160.9069 C.ar    1  UNL1        0.0042
      4 C         140.9921  138.8010  160.1268 C.ar    1  UNL1        0.0497
      5 C         142.0894  139.5589  160.8134 C.ar    1  UNL1       -0.0161
      6 C         141.9909  139.8570  162.2802 C.ar    1  UNL1       -0.0040
      7 C         143.2853  140.0187  160.0333 C.3     1  UNL1        0.0480
      8 C         143.3838  139.7206  158.5666 C.3     1  UNL1        0.0984
      9 N         142.2864  138.9627  157.8798 N.am    1  UNL1       -0.2743
     10 C         141.0906  138.5030  158.6600 C.2     1  UNL1        0.2488
     11 O         139.9933  137.7451  157.9733 O.2     1  UNL1       -0.2699
     12 C         140.4997  140.2914  167.4607 C.ar    1  UNL1        0.0558
     13 C         139.6000  140.9972  166.4899 C.ar    1  UNL1        0.0047
     14 C         139.6985  140.6991  165.0231 C.ar    1  UNL1        0.0024
     15 C         140.6966  139.6953  164.5271 C.ar    1  UNL1        0.0275
     16 C         141.5963  138.9895  165.4979 C.ar    1  UNL1        0.1402
     17 F         142.5945  137.9857  165.0019 F       1  UNL1       -0.2042
     18 C         141.4979  139.2875  166.9647 C.ar    1  UNL1        0.0341
     19 C         141.2241  141.8932  171.0187 C.3     1  UNL1        0.1152
     20 N         141.3225  141.5951  169.5519 N.am    1  UNL1       -0.2726
     21 C         142.3422  142.3027  168.7095 C.3     1  UNL1        0.1152
     22 C         140.4013  140.5894  168.9275 C.2     1  UNL1        0.2492
     23 O         139.3816  139.8819  169.7698 O.2     1  UNL1       -0.2699
     24 C         142.3849  138.6647  156.4131 C.3     1  UNL1        0.1110
     25 C         143.3006  137.5802  155.9280 C.3     1  UNL1        0.0939
     26 N         142.8316  136.1554  155.9088 N.3     1  UNL1       -0.2712
     27 C         143.3478  135.0456  156.7758 C.3     1  UNL1        0.0722
     28 C         142.5993  133.7947  156.4221 C.3     1  UNL1        0.0188
     29 C         141.6205  134.1315  155.3364 C.3     1  UNL1        0.0188
     30 C         141.7641  135.5905  155.0192 C.3     1  UNL1        0.0722
@<TRIPOS>BOND
     1    19    20    1
     2    20    21    1
     3    20    22   am
     4    22    23    2
     5    22    12    1
     6    12    13   ar
     7    13    14   ar
     8    14    15   ar
     9    15     1    1
    10     1     2   ar
    11     2     3   ar
    12     3     4   ar
    13     4     5   ar
    14     5     6   ar
    15     5     7    1
    16     7     8    1
    17     8     9    1
    18     9    24    1
    19    24    25    1
    20    25    26    1
    21    26    27    1
    22    27    28    1
    23    28    29    1
    24    29    30    1
    25     9    10   am
    26    10    11    2
    27    15    16   ar
    28    16    17    1
    29    16    18   ar
    30    18    12   ar
    31     6     1   ar
    32    30    26    1
    33    10     4    1
@<TRIPOS>MOLECULE
*****
 30 33 0 0 0
SMALL
GASTEIGER

@<TRIPOS>ATOM
      1 C         140.2276  139.9692  162.8238 C.ar    1  UNL1        0.0019
      2 C         139.0699  140.2493  163.7355 C.ar    1  UNL1        0.0002
      3 C         139.2501  140.1701  165.2225 C.ar    1  UNL1        0.0042
      4 C         140.5880  139.8110  165.7978 C.ar    1  UNL1        0.0497
      5 C         141.7457  139.5309  164.8861 C.ar    1  UNL1       -0.0161
      6 C         141.5655  139.6101  163.3991 C.ar    1  UNL1       -0.0040
      7 C         143.0836  139.1717  165.4614 C.3     1  UNL1        0.0480
      8 C         143.2638  139.0926  166.9484 C.3     1  UNL1        0.0984
      9 N         142.1061  139.3726  167.8602 N.am    1  UNL1       -0.2743
     10 C         140.7682  139.7318  167.2849 C.2     1  UNL1        0.2488
     11 O         139.6104  140.0118  168.1966 O.2     1  UNL1       -0.2699
     12 C         139.6872  140.2066  158.3626 C.ar    1  UNL1        0.0558
     13 C         140.1492  141.4115  159.1272 C.ar    1  UNL1        0.0047
     14 C         140.3294  141.3324  160.6143 C.ar    1  UNL1        0.0024
     15 C         140.0475  140.0484  161.3367 C.ar    1  UNL1        0.0275
     16 C         139.5854  138.8435  160.5720 C.ar    1  UNL1        0.1402
     17 F         139.3035  137.5594  161.2945 F       1  UNL1       -0.2042
     18 C         139.4053  138.9226  159.0850 C.ar    1  UNL1        0.0341
     19 C         138.0097  140.7956  154.8145 C.3     1  UNL1        0.1152
     20 N         138.1899  140.7165  156.3016 N.am    1  UNL1       -0.2726
     21 C         137.0529  141.0682  157.2146 C.3     1  UNL1        0.1152
     22 C         139.5070  140.2857  156.8756 C.2     1  UNL1        0.2492
     23 O         140.6440  139.9340  155.9626 O.2     1  UNL1       -0.2699
     24 C         142.2863  139.2935  169.3472 C.3     1  UNL1        0.1110
     25 C         142.6360  140.5262  170.1270 C.3     1  UNL1        0.0939
     26 N         141.6691  141.6711  170.1935 N.3     1  UNL1       -0.2712
     27 C         141.7520  142.9422  169.4013 C.3     1  UNL1        0.0722
     28 C         140.5837  143.8026  169.7820 C.3     1  UNL1        0.0188
     29 C         139.7789  143.0632  170.8095 C.3     1  UNL1        0.0188
     30 C         140.4497  141.7459  171.0638 C.3     1  UNL1        0.0722
@<TRIPOS>BOND
     1    19    20    1
     2    20    21    1
     3    20    22   am
     4    22    23    2
     5    22    12    1
     6    12    13   ar
     7    13    14   ar
     8    14    15   ar
     9    15     1    1
    10     1     2   ar
    11     2     3   ar
    12     3     4   ar
    13     4     5   ar
    14     5     6   ar
    15     5     7    1
    16     7     8    1
    17     8     9    1
    18     9    24    1
    19    24    25    1
    20    25    26    1
    21    26    27    1
    22    27    28    1
    23    28    29    1
    24    29    30    1
    25     9    10   am
    26    10    11    2
    27    15    16   ar
    28    16    17    1
    29    16    18   ar
    30    18    12   ar
    31     6     1   ar
    32    30    26    1
    33    10     4    1
