@<TRIPOS>MOLECULE
*****
 31 35 0 0 0
SMALL
GASTEIGER

@<TRIPOS>ATOM
      1 C         141.9013  139.8744  162.0103 C.2     1  UNL1        0.0866
      2 N         143.0234  140.7302  162.5187 N.2     1  UNL1       -0.1523
      3 N         142.7786  140.9991  163.9740 N.2     1  UNL1       -0.1523
      4 C         141.5051  140.3094  164.3650 C.2     1  UNL1        0.0858
      5 C         140.9630  139.6144  163.1513 C.3     1  UNL1        0.0883
      6 C         139.6896  138.9247  163.5423 C.3     1  UNL1        0.0384
      7 C         139.4447  139.1935  164.9975 C.ar    1  UNL1       -0.0202
      8 C         138.3450  138.7696  165.9253 C.ar    1  UNL1       -0.0045
      9 C         138.3674  139.2015  167.3616 C.ar    1  UNL1       -0.0027
     10 C         139.4895  140.0573  167.8701 C.ar    1  UNL1        0.0022
     11 C         140.5892  140.4812  166.9423 C.ar    1  UNL1       -0.0014
     12 C         140.5668  140.0493  165.5060 C.ar    1  UNL1        0.0115
     13 C         142.0885  138.1286  158.5487 C.ar    1  UNL1        0.0710
     14 C         142.5983  138.3266  159.9455 C.ar    1  UNL1        0.0165
     15 C         141.7449  139.3677  160.6071 C.ar    1  UNL1        0.0233
     16 C         140.7077  139.8132  159.6193 C.ar    1  UNL1        0.0373
     17 S         140.9201  139.0473  158.3471 S.2     1  UNL1       -0.0780
     18 C         143.2091  136.2286  156.5155 C.1     1  UNL1       -0.0534
     19 C         142.6488  137.1786  157.5321 C.1     1  UNL1       -0.0554
     20 C         143.7694  135.2785  155.4989 C.3     1  UNL1        0.2182
     21 O         143.1906  133.9017  155.3598 O.3     1  UNL1       -0.3374
     22 C         143.1605  132.9779  156.5412 C.3     1  UNL1        0.1755
     23 C         144.4372  132.3935  157.0690 C.3     1  UNL1        0.1743
     24 C         144.8856  130.3558  155.5209 C.3     1  UNL1        0.1742
     25 O         145.3501  131.6347  156.1522 O.3     1  UNL1       -0.3484
     26 C         139.5118  140.4891  169.3064 C.3     1  UNL1        0.1556
     27 N         140.4725  141.5498  169.7558 N.ar    1  UNL1       -0.2255
     28 C         140.1840  143.0189  169.8482 C.ar    1  UNL1        0.1975
     29 N         141.4236  143.7046  170.3412 N.ar    1  UNL1       -0.2007
     30 C         142.4783  142.6594  170.5536 C.ar    1  UNL1        0.2210
     31 N         141.8905  141.3276  170.1919 N.ar    1  UNL1       -0.1448
@<TRIPOS>BOND
     1    24    25    1
     2    25    23    1
     3    23    22    1
     4    22    21    1
     5    21    20    1
     6    20    18    1
     7    18    19    3
     8    19    13    1
     9    13    14   ar
    10    14    15   ar
    11    15     1    1
    12     1     2    2
    13     2     3    1
    14     3     4    2
    15     4     5    1
    16     5     6    1
    17     6     7    1
    18     7     8   ar
    19     8     9   ar
    20     9    10   ar
    21    10    26    1
    22    26    27    1
    23    27    28   ar
    24    28    29   ar
    25    29    30   ar
    26    30    31   ar
    27    10    11   ar
    28    11    12   ar
    29    15    16   ar
    30    16    17   ar
    31    17    13   ar
    32     5     1    1
    33    12     7   ar
    34    12     4    1
    35    31    27   ar
@<TRIPOS>MOLECULE
*****
 31 35 0 0 0
SMALL
GASTEIGER

@<TRIPOS>ATOM
      1 C         140.0803  140.9725  161.8025 C.2     1  UNL1        0.0866
      2 N         141.2167  141.9029  162.1075 N.2     1  UNL1       -0.1523
      3 N         141.3822  141.9598  163.5973 N.2     1  UNL1       -0.1523
      4 C         140.3480  141.0644  164.2130 C.2     1  UNL1        0.0858
      5 C         139.5435  140.4543  163.1037 C.3     1  UNL1        0.0883
      6 C         138.5094  139.5590  163.7194 C.3     1  UNL1        0.0384
      7 C         138.6748  139.6158  165.2092 C.ar    1  UNL1       -0.0202
      8 C         137.9375  138.9405  166.3274 C.ar    1  UNL1       -0.0045
      9 C         138.3366  139.1956  167.7506 C.ar    1  UNL1       -0.0027
     10 C         139.4729  140.1260  168.0557 C.ar    1  UNL1        0.0022
     11 C         140.2102  140.8013  166.9375 C.ar    1  UNL1       -0.0014
     12 C         139.8112  140.5462  165.5143 C.ar    1  UNL1        0.0115
     13 C         138.3573  140.6979  158.3354 C.ar    1  UNL1        0.0710
     14 C         138.5775  141.4119  159.6360 C.ar    1  UNL1        0.0165
     15 C         139.5704  140.6219  160.4361 C.ar    1  UNL1        0.0233
     16 C         139.9638  139.4196  159.6299 C.ar    1  UNL1        0.0373
     17 S         139.2140  139.4666  158.3316 S.2     1  UNL1       -0.0780
     18 C         136.5250  141.5779  156.1290 C.1     1  UNL1       -0.0534
     19 C         137.4411  141.1379  157.2322 C.1     1  UNL1       -0.0554
     20 C         135.6089  142.0179  155.0258 C.3     1  UNL1        0.2182
     21 O         134.3631  141.2370  154.7290 O.3     1  UNL1       -0.3374
     22 C         133.4720  140.7918  155.8505 C.3     1  UNL1        0.1755
     23 C         133.1942  139.3318  156.0533 C.3     1  UNL1        0.1743
     24 C         133.4136  138.9663  158.6162 C.3     1  UNL1        0.1742
     25 O         133.8067  138.6059  157.2142 O.3     1  UNL1       -0.3484
     26 C         139.8720  140.3811  169.4790 C.3     1  UNL1        0.1556
     27 N         140.7116  141.5764  169.8198 N.ar    1  UNL1       -0.2255
     28 C         140.2046  142.9626  170.0871 C.ar    1  UNL1        0.1975
     29 N         141.3852  143.8384  170.3857 N.ar    1  UNL1       -0.2007
     30 C         142.6219  142.9935  170.3028 C.ar    1  UNL1        0.2210
     31 N         142.2055  141.5955  169.9531 N.ar    1  UNL1       -0.1448
@<TRIPOS>BOND
     1    24    25    1
     2    25    23    1
     3    23    22    1
     4    22    21    1
     5    21    20    1
     6    20    18    1
     7    18    19    3
     8    19    13    1
     9    13    14   ar
    10    14    15   ar
    11    15     1    1
    12     1     2    2
    13     2     3    1
    14     3     4    2
    15     4     5    1
    16     5     6    1
    17     6     7    1
    18     7     8   ar
    19     8     9   ar
    20     9    10   ar
    21    10    26    1
    22    26    27    1
    23    27    28   ar
    24    28    29   ar
    25    29    30   ar
    26    30    31   ar
    27    10    11   ar
    28    11    12   ar
    29    15    16   ar
    30    16    17   ar
    31    17    13   ar
    32     5     1    1
    33    12     7   ar
    34    12     4    1
    35    31    27   ar
@<TRIPOS>MOLECULE
*****
 31 35 0 0 0
SMALL
GASTEIGER

@<TRIPOS>ATOM
      1 C         142.5497  143.9274  161.8588 C.2     1  UNL1        0.0866
      2 N         143.5383  144.7405  162.6408 N.2     1  UNL1       -0.1523
      3 N         143.5686  144.2098  164.0435 N.2     1  UNL1       -0.1523
      4 C         142.5986  143.0687  164.1284 C.2     1  UNL1        0.0858
      5 C         141.9690  142.8942  162.7781 C.3     1  UNL1        0.0883
      6 C         140.9990  141.7531  162.8630 C.3     1  UNL1        0.0384
      7 C         141.0292  141.2224  164.2657 C.ar    1  UNL1       -0.0202
      8 C         140.2842  140.1039  164.9319 C.ar    1  UNL1       -0.0045
      9 C         140.5279  139.7984  166.3801 C.ar    1  UNL1       -0.0027
     10 C         141.5165  140.6115  167.1621 C.ar    1  UNL1        0.0022
     11 C         142.2614  141.7301  166.4959 C.ar    1  UNL1       -0.0014
     12 C         142.0178  142.0355  165.0477 C.ar    1  UNL1        0.0115
     13 C         141.2380  144.9896  158.3636 C.ar    1  UNL1        0.0710
     14 C         141.3015  145.1744  159.8508 C.ar    1  UNL1        0.0165
     15 C         142.2028  144.1146  160.4115 C.ar    1  UNL1        0.0233
     16 C         142.6963  143.2747  159.2708 C.ar    1  UNL1        0.0373
     17 S         142.1000  143.8156  158.0051 S.2     1  UNL1       -0.0780
     18 C         139.6633  146.6727  156.4433 C.1     1  UNL1       -0.0534
     19 C         140.4506  145.8312  157.4034 C.1     1  UNL1       -0.0554
     20 C         138.8760  147.5143  155.4832 C.3     1  UNL1        0.2182
     21 O         139.2194  148.9628  155.2994 O.3     1  UNL1       -0.3374
     22 C         138.3770  150.0214  155.9472 C.3     1  UNL1        0.1755
     23 C         138.9642  151.3691  156.2452 C.3     1  UNL1        0.1743
     24 C         139.7339  152.1563  153.8919 C.3     1  UNL1        0.1742
     25 O         140.0215  151.9416  155.3483 O.3     1  UNL1       -0.3484
     26 C         141.7601  140.3060  168.6104 C.3     1  UNL1        0.1556
     27 N         141.1470  141.1697  169.6725 N.ar    1  UNL1       -0.2255
     28 C         141.4266  141.0897  171.1440 C.ar    1  UNL1        0.1975
     29 N         140.5991  142.1356  171.8306 N.ar    1  UNL1       -0.2007
     30 C         139.8081  142.8621  170.7833 C.ar    1  UNL1        0.2210
     31 N         140.1468  142.2651  169.4496 N.ar    1  UNL1       -0.1448
@<TRIPOS>BOND
     1    24    25    1
     2    25    23    1
     3    23    22    1
     4    22    21    1
     5    21    20    1
     6    20    18    1
     7    18    19    3
     8    19    13    1
     9    13    14   ar
    10    14    15   ar
    11    15     1    1
    12     1     2    2
    13     2     3    1
    14     3     4    2
    15     4     5    1
    16     5     6    1
    17     6     7    1
    18     7     8   ar
    19     8     9   ar
    20     9    10   ar
    21    10    26    1
    22    26    27    1
    23    27    28   ar
    24    28    29   ar
    25    29    30   ar
    26    30    31   ar
    27    10    11   ar
    28    11    12   ar
    29    15    16   ar
    30    16    17   ar
    31    17    13   ar
    32     5     1    1
    33    12     7   ar
    34    12     4    1
    35    31    27   ar
@<TRIPOS>MOLECULE
*****
 31 35 0 0 0
SMALL
GASTEIGER

@<TRIPOS>ATOM
      1 C         141.2293  144.8214  162.2217 C.2     1  UNL1        0.0866
      2 N         140.0351  145.6993  162.4525 N.2     1  UNL1       -0.1523
      3 N         139.5314  146.1576  161.1159 N.2     1  UNL1       -0.1523
      4 C         140.4144  145.5628  160.0591 C.2     1  UNL1        0.0858
      5 C         141.4637  144.7371  160.7426 C.3     1  UNL1        0.0883
      6 C         142.3466  144.1424  159.6858 C.3     1  UNL1        0.0384
      7 C         141.8430  144.6006  158.3492 C.ar    1  UNL1       -0.0202
      8 C         142.3176  144.3319  156.9519 C.ar    1  UNL1       -0.0045
      9 C         141.5979  144.9410  155.7853 C.ar    1  UNL1       -0.0027
     10 C         140.4037  145.8189  156.0160 C.ar    1  UNL1        0.0022
     11 C         139.9292  146.0876  157.4133 C.ar    1  UNL1       -0.0014
     12 C         140.6488  145.4785  158.5799 C.ar    1  UNL1        0.0115
     13 C         142.6966  142.7252  165.1403 C.ar    1  UNL1        0.0710
     14 C         141.5458  143.1308  164.2678 C.ar    1  UNL1        0.0165
     15 C         142.0457  144.1464  163.2837 C.ar    1  UNL1        0.0233
     16 C         143.5055  144.3686  163.5479 C.ar    1  UNL1        0.0373
     17 S         143.9078  143.4902  164.6955 S.2     1  UNL1       -0.0780
     18 C         142.5939  140.7338  167.3815 C.1     1  UNL1       -0.0534
     19 C         142.6452  141.7295  166.2610 C.1     1  UNL1       -0.0554
     20 C         142.5425  139.7379  168.5021 C.3     1  UNL1        0.2182
     21 O         141.2898  139.5849  169.3128 O.3     1  UNL1       -0.3374
     22 C         140.6232  140.7942  169.8987 C.3     1  UNL1        0.1755
     23 C         141.0322  141.2942  171.2524 C.3     1  UNL1        0.1743
     24 C         142.8096  142.9699  170.3677 C.3     1  UNL1        0.1742
     25 O         141.7691  142.5943  171.3807 O.3     1  UNL1       -0.3484
     26 C         139.6841  146.4280  154.8493 C.3     1  UNL1        0.1556
     27 N         139.5700  147.9192  154.7339 N.ar    1  UNL1       -0.2255
     28 C         140.2154  148.7742  153.6840 C.ar    1  UNL1        0.1975
     29 N         139.8348  150.2006  153.9494 N.ar    1  UNL1       -0.2007
     30 C         138.9541  150.2272  155.1634 C.ar    1  UNL1        0.2210
     31 N         138.7905  148.8172  155.6483 N.ar    1  UNL1       -0.1448
@<TRIPOS>BOND
     1    24    25    1
     2    25    23    1
     3    23    22    1
     4    22    21    1
     5    21    20    1
     6    20    18    1
     7    18    19    3
     8    19    13    1
     9    13    14   ar
    10    14    15   ar
    11    15     1    1
    12     1     2    2
    13     2     3    1
    14     3     4    2
    15     4     5    1
    16     5     6    1
    17     6     7    1
    18     7     8   ar
    19     8     9   ar
    20     9    10   ar
    21    10    26    1
    22    26    27    1
    23    27    28   ar
    24    28    29   ar
    25    29    30   ar
    26    30    31   ar
    27    10    11   ar
    28    11    12   ar
    29    15    16   ar
    30    16    17   ar
    31    17    13   ar
    32     5     1    1
    33    12     7   ar
    34    12     4    1
    35    31    27   ar
@<TRIPOS>MOLECULE
*****
 31 35 0 0 0
SMALL
GASTEIGER

@<TRIPOS>ATOM
      1 C         140.0382  143.1403  162.0663 C.2     1  UNL1        0.0866
      2 N         140.9281  144.1204  162.7717 N.2     1  UNL1       -0.1523
      3 N         141.0142  143.7142  164.2131 N.2     1  UNL1       -0.1523
      4 C         140.1775  142.4831  164.3985 C.2     1  UNL1        0.0858
      5 C         139.5743  142.1284  163.0717 C.3     1  UNL1        0.0883
      6 C         138.7377  140.8974  163.2572 C.3     1  UNL1        0.0384
      7 C         138.8238  140.4911  164.6985 C.ar    1  UNL1       -0.0202
      8 C         138.2068  139.3555  165.4598 C.ar    1  UNL1       -0.0045
      9 C         138.4798  139.1998  166.9265 C.ar    1  UNL1       -0.0027
     10 C         139.3697  140.1799  167.6319 C.ar    1  UNL1        0.0022
     11 C         139.9866  141.3155  166.8706 C.ar    1  UNL1       -0.0014
     12 C         139.7137  141.4712  165.4040 C.ar    1  UNL1        0.0115
     13 C         138.5925  142.6881  158.4927 C.ar    1  UNL1        0.0710
     14 C         138.6123  142.3403  159.9517 C.ar    1  UNL1        0.0165
     15 C         139.6758  143.1674  160.6110 C.ar    1  UNL1        0.0233
     16 C         140.3134  144.0265  159.5595 C.ar    1  UNL1        0.0373
     17 S         139.6438  143.7302  158.2503 S.2     1  UNL1       -0.0780
     18 C         136.7703  141.5069  156.4229 C.1     1  UNL1       -0.0534
     19 C         137.6814  142.0975  157.4578 C.1     1  UNL1       -0.0554
     20 C         135.8592  140.9163  155.3879 C.3     1  UNL1        0.2182
     21 O         135.3162  139.5300  155.5699 O.3     1  UNL1       -0.3374
     22 C         133.8497  139.3242  155.8088 C.3     1  UNL1        0.1755
     23 C         133.0206  140.4339  156.3842 C.3     1  UNL1        0.1743
     24 C         130.7155  139.6294  157.2724 C.3     1  UNL1        0.1742
     25 O         132.0941  140.1606  157.5316 O.3     1  UNL1       -0.3484
     26 C         139.6426  140.0242  169.0987 C.3     1  UNL1        0.1556
     27 N         141.0175  140.2868  169.6377 N.ar    1  UNL1       -0.2255
     28 C         142.1141  139.2744  169.7873 C.ar    1  UNL1        0.1975
     29 N         143.3116  139.9698  170.3639 N.ar    1  UNL1       -0.2007
     30 C         142.9550  141.4121  170.5706 C.ar    1  UNL1        0.2210
     31 N         141.5372  141.6080  170.1219 N.ar    1  UNL1       -0.1448
@<TRIPOS>BOND
     1    24    25    1
     2    25    23    1
     3    23    22    1
     4    22    21    1
     5    21    20    1
     6    20    18    1
     7    18    19    3
     8    19    13    1
     9    13    14   ar
    10    14    15   ar
    11    15     1    1
    12     1     2    2
    13     2     3    1
    14     3     4    2
    15     4     5    1
    16     5     6    1
    17     6     7    1
    18     7     8   ar
    19     8     9   ar
    20     9    10   ar
    21    10    26    1
    22    26    27    1
    23    27    28   ar
    24    28    29   ar
    25    29    30   ar
    26    30    31   ar
    27    10    11   ar
    28    11    12   ar
    29    15    16   ar
    30    16    17   ar
    31    17    13   ar
    32     5     1    1
    33    12     7   ar
    34    12     4    1
    35    31    27   ar
@<TRIPOS>MOLECULE
*****
 31 35 0 0 0
SMALL
GASTEIGER

@<TRIPOS>ATOM
      1 C         143.8530  142.2398  161.3991 C.2     1  UNL1        0.0866
      2 N         144.2869  143.6607  161.6062 N.2     1  UNL1       -0.1523
      3 N         144.2451  143.9483  163.0778 N.2     1  UNL1       -0.1523
      4 C         143.7854  142.7051  163.7802 C.2     1  UNL1        0.0858
      5 C         143.5431  141.6493  162.7427 C.3     1  UNL1        0.0883
      6 C         143.0834  140.4062  163.4450 C.3     1  UNL1        0.0384
      7 C         143.0416  140.6937  164.9166 C.ar    1  UNL1       -0.0202
      8 C         142.6645  139.8454  166.0948 C.ar    1  UNL1       -0.0045
      9 C         142.7213  140.4179  167.4800 C.ar    1  UNL1       -0.0027
     10 C         143.1552  141.8387  167.6871 C.ar    1  UNL1        0.0022
     11 C         143.5323  142.6871  166.5090 C.ar    1  UNL1       -0.0014
     12 C         143.4754  142.1146  165.1238 C.ar    1  UNL1        0.0115
     13 C         143.2978  139.8458  158.3948 C.ar    1  UNL1        0.0710
     14 C         143.2203  140.1462  159.8624 C.ar    1  UNL1        0.0165
     15 C         143.7476  141.5335  160.0800 C.ar    1  UNL1        0.0233
     16 C         144.1509  142.0906  158.7469 C.ar    1  UNL1        0.0373
     17 S         143.8729  141.0475  157.7054 S.2     1  UNL1       -0.0780
     18 C         142.4511  137.2904  157.0710 C.1     1  UNL1       -0.0534
     19 C         142.8744  138.5681  157.7328 C.1     1  UNL1       -0.0554
     20 C         142.0278  136.0126  156.4091 C.3     1  UNL1        0.2182
     21 O         142.7705  134.7402  156.6906 O.3     1  UNL1       -0.3374
     22 C         143.1716  133.8399  155.5599 C.3     1  UNL1        0.1755
     23 C         143.5587  132.4171  155.8351 C.3     1  UNL1        0.1743
     24 C         145.2175  131.6792  157.6936 C.3     1  UNL1        0.1742
     25 O         144.9551  132.0915  156.2754 O.3     1  UNL1       -0.3484
     26 C         143.2120  142.4112  169.0725 C.3     1  UNL1        0.1556
     27 N         141.9681  142.4778  169.9081 N.ar    1  UNL1       -0.2255
     28 C         141.7642  141.8184  171.2398 C.ar    1  UNL1        0.1975
     29 N         140.3798  142.1485  171.7134 N.ar    1  UNL1       -0.2007
     30 C         139.7279  143.0120  170.6743 C.ar    1  UNL1        0.2210
     31 N         140.7096  143.2155  169.5586 N.ar    1  UNL1       -0.1448
@<TRIPOS>BOND
     1    24    25    1
     2    25    23    1
     3    23    22    1
     4    22    21    1
     5    21    20    1
     6    20    18    1
     7    18    19    3
     8    19    13    1
     9    13    14   ar
    10    14    15   ar
    11    15     1    1
    12     1     2    2
    13     2     3    1
    14     3     4    2
    15     4     5    1
    16     5     6    1
    17     6     7    1
    18     7     8   ar
    19     8     9   ar
    20     9    10   ar
    21    10    26    1
    22    26    27    1
    23    27    28   ar
    24    28    29   ar
    25    29    30   ar
    26    30    31   ar
    27    10    11   ar
    28    11    12   ar
    29    15    16   ar
    30    16    17   ar
    31    17    13   ar
    32     5     1    1
    33    12     7   ar
    34    12     4    1
    35    31    27   ar
@<TRIPOS>MOLECULE
*****
 31 35 0 0 0
SMALL
GASTEIGER

@<TRIPOS>ATOM
      1 C         140.2936  140.7118  161.9568 C.2     1  UNL1        0.0866
      2 N         141.2953  141.7794  162.2838 N.2     1  UNL1       -0.1523
      3 N         141.3235  141.9478  163.7741 N.2     1  UNL1       -0.1523
      4 C         140.3392  140.9841  164.3681 C.2     1  UNL1        0.0858
      5 C         139.7028  140.2203  163.2449 C.3     1  UNL1        0.0883
      6 C         138.7186  139.2567  163.8389 C.3     1  UNL1        0.0384
      7 C         138.7467  139.4250  165.3292 C.ar    1  UNL1       -0.0202
      8 C         137.9897  138.7440  166.4306 C.ar    1  UNL1       -0.0045
      9 C         138.2344  139.1307  167.8591 C.ar    1  UNL1       -0.0027
     10 C         139.2360  140.1982  168.1862 C.ar    1  UNL1        0.0022
     11 C         139.9930  140.8792  167.0847 C.ar    1  UNL1       -0.0014
     12 C         139.7484  140.4926  165.6562 C.ar    1  UNL1        0.0115
     13 C         139.9568  138.9599  158.5096 C.ar    1  UNL1        0.0710
     14 C         140.6294  139.1121  159.8417 C.ar    1  UNL1        0.0165
     15 C         139.9442  140.2218  160.5828 C.ar    1  UNL1        0.0233
     16 C         138.8482  140.7555  159.7087 C.ar    1  UNL1        0.0373
     17 S         138.8560  139.9755  158.4274 S.2     1  UNL1       -0.0780
     18 C         140.6855  136.9732  156.3833 C.1     1  UNL1       -0.0534
     19 C         140.3211  137.9665  157.4464 C.1     1  UNL1       -0.0554
     20 C         141.0499  135.9797  155.3201 C.3     1  UNL1        0.2182
     21 O         142.4590  135.4762  155.2153 O.3     1  UNL1       -0.3374
     22 C         143.3489  135.4811  156.4227 C.3     1  UNL1        0.1755
     23 C         143.4946  134.2398  157.2522 C.3     1  UNL1        0.1743
     24 C         142.6203  131.9587  156.3679 C.3     1  UNL1        0.1742
     25 O         143.7508  132.9196  156.5879 O.3     1  UNL1       -0.3484
     26 C         139.4806  140.5849  169.6147 C.3     1  UNL1        0.1556
     27 N         140.4755  141.6589  169.9412 N.ar    1  UNL1       -0.2255
     28 C         140.1886  143.1284  170.0316 C.ar    1  UNL1        0.1975
     29 N         141.4676  143.8298  170.3809 N.ar    1  UNL1       -0.2007
     30 C         142.5451  142.7938  170.5064 C.ar    1  UNL1        0.2210
     31 N         141.9319  141.4521  170.2347 N.ar    1  UNL1       -0.1448
@<TRIPOS>BOND
     1    24    25    1
     2    25    23    1
     3    23    22    1
     4    22    21    1
     5    21    20    1
     6    20    18    1
     7    18    19    3
     8    19    13    1
     9    13    14   ar
    10    14    15   ar
    11    15     1    1
    12     1     2    2
    13     2     3    1
    14     3     4    2
    15     4     5    1
    16     5     6    1
    17     6     7    1
    18     7     8   ar
    19     8     9   ar
    20     9    10   ar
    21    10    26    1
    22    26    27    1
    23    27    28   ar
    24    28    29   ar
    25    29    30   ar
    26    30    31   ar
    27    10    11   ar
    28    11    12   ar
    29    15    16   ar
    30    16    17   ar
    31    17    13   ar
    32     5     1    1
    33    12     7   ar
    34    12     4    1
    35    31    27   ar
@<TRIPOS>MOLECULE
*****
 31 35 0 0 0
SMALL
GASTEIGER

@<TRIPOS>ATOM
      1 C         142.0148  139.5605  162.1316 C.2     1  UNL1        0.0866
      2 N         143.0366  140.5330  162.6415 N.2     1  UNL1       -0.1523
      3 N         142.6904  140.8669  164.0623 N.2     1  UNL1       -0.1523
      4 C         141.4545  140.1006  164.4305 C.2     1  UNL1        0.0858
      5 C         141.0370  139.2932  163.2372 C.3     1  UNL1        0.0883
      6 C         139.8012  138.5270  163.6054 C.3     1  UNL1        0.0384
      7 C         139.4548  138.8608  165.0262 C.ar    1  UNL1       -0.0202
      8 C         138.3411  138.4048  165.9215 C.ar    1  UNL1       -0.0045
      9 C         138.2491  138.9214  167.3267 C.ar    1  UNL1       -0.0027
     10 C         139.2710  139.8939  167.8366 C.ar    1  UNL1        0.0022
     11 C         140.3847  140.3499  166.9413 C.ar    1  UNL1       -0.0014
     12 C         140.4767  139.8333  165.5361 C.ar    1  UNL1        0.0115
     13 C         141.2256  138.3039  158.5450 C.ar    1  UNL1        0.0710
     14 C         140.8322  139.0394  159.7917 C.ar    1  UNL1        0.0165
     15 C         141.9774  138.9605  160.7573 C.ar    1  UNL1        0.0233
     16 C         143.0786  138.1764  160.1073 C.ar    1  UNL1        0.0373
     17 S         142.6140  137.7706  158.7400 S.2     1  UNL1       -0.0780
     18 C         139.5330  137.9602  156.0922 C.1     1  UNL1       -0.0534
     19 C         140.3793  138.1320  157.3185 C.1     1  UNL1       -0.0554
     20 C         138.6867  137.7883  154.8656 C.3     1  UNL1        0.2182
     21 O         137.2226  137.4909  155.0002 O.3     1  UNL1       -0.3374
     22 C         136.2194  138.2999  154.2326 C.3     1  UNL1        0.1755
     23 C         135.4677  139.4047  154.9139 C.3     1  UNL1        0.1743
     24 C         136.2913  141.6360  155.9595 C.3     1  UNL1        0.1742
     25 O         136.0991  140.1512  156.0514 O.3     1  UNL1       -0.3484
     26 C         139.1790  140.4105  169.2419 C.3     1  UNL1        0.1556
     27 N         140.2202  141.3561  169.7630 N.ar    1  UNL1       -0.2255
     28 C         140.1804  142.8523  169.6651 C.ar    1  UNL1        0.1975
     29 N         141.4197  143.3925  170.3152 N.ar    1  UNL1       -0.2007
     30 C         142.2254  142.2300  170.8148 C.ar    1  UNL1        0.2210
     31 N         141.4840  140.9715  170.4736 N.ar    1  UNL1       -0.1448
@<TRIPOS>BOND
     1    24    25    1
     2    25    23    1
     3    23    22    1
     4    22    21    1
     5    21    20    1
     6    20    18    1
     7    18    19    3
     8    19    13    1
     9    13    14   ar
    10    14    15   ar
    11    15     1    1
    12     1     2    2
    13     2     3    1
    14     3     4    2
    15     4     5    1
    16     5     6    1
    17     6     7    1
    18     7     8   ar
    19     8     9   ar
    20     9    10   ar
    21    10    26    1
    22    26    27    1
    23    27    28   ar
    24    28    29   ar
    25    29    30   ar
    26    30    31   ar
    27    10    11   ar
    28    11    12   ar
    29    15    16   ar
    30    16    17   ar
    31    17    13   ar
    32     5     1    1
    33    12     7   ar
    34    12     4    1
    35    31    27   ar
@<TRIPOS>MOLECULE
*****
 31 35 0 0 0
SMALL
GASTEIGER

@<TRIPOS>ATOM
      1 C         140.1999  140.5529  161.6394 C.2     1  UNL1        0.0866
      2 N         139.2244  141.5425  162.2040 N.2     1  UNL1       -0.1523
      3 N         139.4284  141.5990  163.6891 N.2     1  UNL1       -0.1523
      4 C         140.5301  140.6442  164.0422 C.2     1  UNL1        0.0858
      5 C         141.0069  139.9977  162.7754 C.3     1  UNL1        0.0883
      6 C         142.1086  139.0430  163.1286 C.3     1  UNL1        0.0384
      7 C         142.3127  139.0994  164.6136 C.ar    1  UNL1       -0.0202
      8 C         143.2608  138.3776  165.5246 C.ar    1  UNL1       -0.0045
      9 C         143.2334  138.6454  167.0002 C.ar    1  UNL1       -0.0027
     10 C         142.2578  139.6350  167.5648 C.ar    1  UNL1        0.0022
     11 C         141.3097  140.3569  166.6538 C.ar    1  UNL1       -0.0014
     12 C         141.3371  140.0891  165.1782 C.ar    1  UNL1        0.0115
     13 C         140.6723  138.8981  158.1603 C.ar    1  UNL1        0.0710
     14 C         140.6028  138.8068  159.6559 C.ar    1  UNL1        0.0165
     15 C         140.3434  140.1833  160.1928 C.ar    1  UNL1        0.0233
     16 C         140.2526  141.1253  159.0289 C.ar    1  UNL1        0.0373
     17 S         140.4559  140.3309  157.7728 S.2     1  UNL1       -0.0780
     18 C         141.1588  136.6157  156.2752 C.1     1  UNL1       -0.0534
     19 C         140.9155  137.7569  157.2177 C.1     1  UNL1       -0.0554
     20 C         141.4020  135.4744  155.3327 C.3     1  UNL1        0.2182
     21 O         142.7502  134.8190  155.2806 O.3     1  UNL1       -0.3374
     22 C         143.6372  134.8309  156.4901 C.3     1  UNL1        0.1755
     23 C         143.7048  133.6271  157.3825 C.3     1  UNL1        0.1743
     24 C         142.9683  131.3003  156.4914 C.3     1  UNL1        0.1742
     25 O         142.6686  132.5487  157.2671 O.3     1  UNL1       -0.3484
     26 C         142.2303  139.9028  169.0405 C.3     1  UNL1        0.1556
     27 N         141.1744  140.7960  169.6212 N.ar    1  UNL1       -0.2255
     28 C         139.7944  140.3772  170.0334 C.ar    1  UNL1        0.1975
     29 N         139.0802  141.5872  170.5586 N.ar    1  UNL1       -0.2007
     30 C         140.0189  142.7539  170.4709 C.ar    1  UNL1        0.2210
     31 N         141.3132  142.2649  169.8916 N.ar    1  UNL1       -0.1448
@<TRIPOS>BOND
     1    24    25    1
     2    25    23    1
     3    23    22    1
     4    22    21    1
     5    21    20    1
     6    20    18    1
     7    18    19    3
     8    19    13    1
     9    13    14   ar
    10    14    15   ar
    11    15     1    1
    12     1     2    2
    13     2     3    1
    14     3     4    2
    15     4     5    1
    16     5     6    1
    17     6     7    1
    18     7     8   ar
    19     8     9   ar
    20     9    10   ar
    21    10    26    1
    22    26    27    1
    23    27    28   ar
    24    28    29   ar
    25    29    30   ar
    26    30    31   ar
    27    10    11   ar
    28    11    12   ar
    29    15    16   ar
    30    16    17   ar
    31    17    13   ar
    32     5     1    1
    33    12     7   ar
    34    12     4    1
    35    31    27   ar
