@<TRIPOS>MOLECULE
*****
 26 28 0 0 0
SMALL
GASTEIGER

@<TRIPOS>ATOM
      1 C         139.4989  138.6406  164.8831 C.3     1  UNL1        0.0845
      2 C         140.2766  137.4336  164.4493 C.3     1  UNL1        0.0221
      3 C         139.7315  139.2346  166.2407 C.3     1  UNL1        0.1184
      4 C         141.0439  139.8874  166.5589 C.2     1  UNL1       -0.0143
      5 C         141.2765  140.4815  167.9166 C.ar    1  UNL1        0.0124
      6 C         142.5889  141.1343  168.2348 C.ar    1  UNL1        0.0124
      7 C         142.8214  141.7283  169.5923 C.ar    1  UNL1        0.0577
      8 CL        144.1339  142.3812  169.9106 Cl      1  UNL1       -0.0822
      9 C         141.7415  141.6695  170.6317 C.ar    1  UNL1        0.0127
     10 C         140.4291  141.0166  170.3135 C.ar    1  UNL1        0.0175
     11 C         140.1966  140.4226  168.9560 C.ar    1  UNL1        0.0731
     12 N         138.8841  139.7698  168.6377 N.am    1  UNL1       -0.1789
     13 C         138.6516  139.1758  167.2801 C.2     1  UNL1        0.2508
     14 O         137.3391  138.5229  166.9619 O.2     1  UNL1       -0.2726
     15 N         138.4886  139.2536  163.9593 N.pl3   1  UNL1       -0.3037
     16 H         137.7070  138.7307  163.6678 H       1  UNL1        0.1496
     17 C         138.2894  143.2139  163.7966 C.ar    1  UNL1        0.2387
     18 N         138.1089  141.8041  164.2763 N.ar    1  UNL1       -0.1783
     19 C         138.6691  140.6633  163.4796 C.ar    1  UNL1        0.2195
     20 N         139.4098  140.9322  162.2033 N.ar    1  UNL1       -0.2114
     21 C         139.5903  142.3419  161.7236 C.ar    1  UNL1        0.1168
     22 C         139.0301  143.4828  162.5203 C.ar    1  UNL1        0.1406
     23 C         138.5567  144.9978  165.6664 C.3     1  UNL1        0.2543
     24 O         137.7292  144.3547  164.5933 O.3     1  UNL1       -0.4556
     25 C         139.2105  144.8925  162.0406 C.1     1  UNL1        0.1067
     26 N         139.3910  146.3022  161.5609 N.1     1  UNL1       -0.1906
@<TRIPOS>BOND
     1    23    24    1
     2    24    17    1
     3    17    18   ar
     4    18    19   ar
     5    19    15    1
     6    15     1    1
     7     1     2    1
     8     1     3    1
     9     3     4    1
    10     4     5    2
    11     5     6   ar
    12     6     7   ar
    13     7     8    1
    14     7     9   ar
    15     9    10   ar
    16    10    11   ar
    17    11    12    2
    18    12    13    1
    19    13    14    2
    20    19    20   ar
    21    20    21   ar
    22    21    22   ar
    23    22    25    1
    24    25    26    3
    25    22    17   ar
    26    13     3    1
    27    11     5   ar
    28    15    16    1
@<TRIPOS>MOLECULE
*****
 26 28 0 0 0
SMALL
GASTEIGER

@<TRIPOS>ATOM
      1 C         139.4125  138.8371  164.8248 C.3     1  UNL1        0.0845
      2 C         140.1675  137.6488  164.3074 C.3     1  UNL1        0.0221
      3 C         139.6769  139.3488  166.2099 C.3     1  UNL1        0.1184
      4 C         140.9856  140.0088  166.5285 C.2     1  UNL1       -0.0143
      5 C         141.2501  140.5204  167.9136 C.ar    1  UNL1        0.0124
      6 C         142.5588  141.1805  168.2322 C.ar    1  UNL1        0.0124
      7 C         142.8231  141.6921  169.6172 C.ar    1  UNL1        0.0577
      8 CL        144.1319  142.3521  169.9359 Cl      1  UNL1       -0.0822
      9 C         141.7788  141.5436  170.6836 C.ar    1  UNL1        0.0127
     10 C         140.4700  140.8836  170.3650 C.ar    1  UNL1        0.0175
     11 C         140.2057  140.3720  168.9800 C.ar    1  UNL1        0.0731
     12 N         138.8969  139.7120  168.6613 N.am    1  UNL1       -0.1789
     13 C         138.6325  139.2004  167.2763 C.2     1  UNL1        0.2508
     14 O         137.3237  138.5403  166.9576 O.2     1  UNL1       -0.2726
     15 N         138.3930  139.5139  163.9572 N.pl3   1  UNL1       -0.3037
     16 H         137.5702  139.0376  163.7015 H       1  UNL1        0.1496
     17 C         140.2589  142.8561  162.9094 C.ar    1  UNL1        0.2387
     18 N         140.0246  141.4537  163.3874 N.ar    1  UNL1       -0.1783
     19 C         138.6273  140.9162  163.4792 C.ar    1  UNL1        0.2195
     20 N         137.4641  141.7810  163.0929 N.ar    1  UNL1       -0.2114
     21 C         137.6983  143.1834  162.6149 C.ar    1  UNL1        0.1168
     22 C         139.0958  143.7210  162.5231 C.ar    1  UNL1        0.1406
     23 C         142.3287  143.9468  164.0390 C.3     1  UNL1        0.2543
     24 O         141.6562  143.3937  162.8177 O.3     1  UNL1       -0.4556
     25 C         139.3300  145.1233  162.0451 C.1     1  UNL1        0.1067
     26 N         139.5642  146.5256  161.5671 N.1     1  UNL1       -0.1906
@<TRIPOS>BOND
     1    23    24    1
     2    24    17    1
     3    17    18   ar
     4    18    19   ar
     5    19    15    1
     6    15     1    1
     7     1     2    1
     8     1     3    1
     9     3     4    1
    10     4     5    2
    11     5     6   ar
    12     6     7   ar
    13     7     8    1
    14     7     9   ar
    15     9    10   ar
    16    10    11   ar
    17    11    12    2
    18    12    13    1
    19    13    14    2
    20    19    20   ar
    21    20    21   ar
    22    21    22   ar
    23    22    25    1
    24    25    26    3
    25    22    17   ar
    26    13     3    1
    27    11     5   ar
    28    15    16    1
@<TRIPOS>MOLECULE
*****
 26 28 0 0 0
SMALL
GASTEIGER

@<TRIPOS>ATOM
      1 C         138.8029  144.2514  164.0833 C.3     1  UNL1        0.0845
      2 C         138.4910  144.8275  165.4326 C.3     1  UNL1        0.0221
      3 C         140.2275  144.0017  163.6854 C.3     1  UNL1        0.1184
      4 C         140.9470  142.7885  164.1954 C.2     1  UNL1       -0.0143
      5 C         142.3716  142.5387  163.7976 C.ar    1  UNL1        0.0124
      6 C         143.0911  141.3255  164.3076 C.ar    1  UNL1        0.0124
      7 C         144.5157  141.0758  163.9098 C.ar    1  UNL1        0.0577
      8 CL        145.2353  139.8625  164.4198 Cl      1  UNL1       -0.0822
      9 C         145.2207  142.0394  163.0018 C.ar    1  UNL1        0.0127
     10 C         144.5012  143.2527  162.4917 C.ar    1  UNL1        0.0175
     11 C         143.0767  143.5024  162.8896 C.ar    1  UNL1        0.0731
     12 N         142.3571  144.7157  162.3796 N.am    1  UNL1       -0.1789
     13 C         140.9326  144.9654  162.7774 C.2     1  UNL1        0.2508
     14 O         140.2130  146.1787  162.2674 O.2     1  UNL1       -0.2726
     15 N         137.6903  143.9250  163.1317 N.pl3   1  UNL1       -0.3037
     16 H         136.8058  144.3418  163.2470 H       1  UNL1        0.1496
     17 C         137.7999  140.5552  161.0384 C.ar    1  UNL1        0.2387
     18 N         137.5650  141.5166  162.1657 N.ar    1  UNL1       -0.1783
     19 C         137.9252  142.9637  162.0045 C.ar    1  UNL1        0.2195
     20 N         138.5202  143.4495  160.7161 N.ar    1  UNL1       -0.2114
     21 C         138.7551  142.4882  159.5889 C.ar    1  UNL1        0.1168
     22 C         138.3950  141.0410  159.7501 C.ar    1  UNL1        0.1406
     23 C         138.3100  138.2058  162.0236 C.3     1  UNL1        0.2543
     24 O         137.4398  139.1080  161.1996 O.3     1  UNL1       -0.4556
     25 C         138.6299  140.0797  158.6229 C.1     1  UNL1        0.1067
     26 N         138.8648  139.1183  157.4957 N.1     1  UNL1       -0.1906
@<TRIPOS>BOND
     1    23    24    1
     2    24    17    1
     3    17    18   ar
     4    18    19   ar
     5    19    15    1
     6    15     1    1
     7     1     2    1
     8     1     3    1
     9     3     4    1
    10     4     5    2
    11     5     6   ar
    12     6     7   ar
    13     7     8    1
    14     7     9   ar
    15     9    10   ar
    16    10    11   ar
    17    11    12    2
    18    12    13    1
    19    13    14    2
    20    19    20   ar
    21    20    21   ar
    22    21    22   ar
    23    22    25    1
    24    25    26    3
    25    22    17   ar
    26    13     3    1
    27    11     5   ar
    28    15    16    1
@<TRIPOS>MOLECULE
*****
 26 28 0 0 0
SMALL
GASTEIGER

@<TRIPOS>ATOM
      1 C         142.2904  140.8695  167.2409 C.3     1  UNL1        0.0845
      2 C         142.8029  141.6026  168.4450 C.3     1  UNL1        0.0221
      3 C         141.1990  141.4703  166.4054 C.3     1  UNL1        0.1184
      4 C         141.4834  142.6681  165.5486 C.2     1  UNL1       -0.0143
      5 C         140.3920  143.2689  164.7131 C.ar    1  UNL1        0.0124
      6 C         140.6764  144.4668  163.8563 C.ar    1  UNL1        0.0124
      7 C         139.5850  145.0674  163.0208 C.ar    1  UNL1        0.0577
      8 CL        139.8694  146.2654  162.1640 Cl      1  UNL1       -0.0822
      9 C         138.2092  144.4702  163.0422 C.ar    1  UNL1        0.0127
     10 C         137.9248  143.2723  163.8989 C.ar    1  UNL1        0.0175
     11 C         139.0162  142.6716  164.7344 C.ar    1  UNL1        0.0731
     12 N         138.7318  141.4737  165.5912 N.am    1  UNL1       -0.1789
     13 C         139.8232  140.8730  166.4267 C.2     1  UNL1        0.2508
     14 O         139.5388  139.6751  167.2835 O.2     1  UNL1       -0.2726
     15 N         142.8693  139.5357  166.8722 N.pl3   1  UNL1       -0.3037
     16 H         143.1984  138.9306  167.5756 H       1  UNL1        0.1496
     17 C         141.9196  137.8989  163.3839 C.ar    1  UNL1        0.2387
     18 N         141.8423  138.3108  164.8242 N.ar    1  UNL1       -0.1783
     19 C         142.9466  139.1239  165.4320 C.ar    1  UNL1        0.2195
     20 N         144.1281  139.5251  164.5996 N.ar    1  UNL1       -0.2114
     21 C         144.2054  139.1133  163.1593 C.ar    1  UNL1        0.1168
     22 C         143.1011  138.3001  162.5514 C.ar    1  UNL1        0.1406
     23 C         139.5146  137.7394  162.4140 C.3     1  UNL1        0.2543
     24 O         140.8153  137.0859  162.7760 O.3     1  UNL1       -0.4556
     25 C         143.1784  137.8883  161.1112 C.1     1  UNL1        0.1067
     26 N         143.2557  137.4765  159.6709 N.1     1  UNL1       -0.1906
@<TRIPOS>BOND
     1    23    24    1
     2    24    17    1
     3    17    18   ar
     4    18    19   ar
     5    19    15    1
     6    15     1    1
     7     1     2    1
     8     1     3    1
     9     3     4    1
    10     4     5    2
    11     5     6   ar
    12     6     7   ar
    13     7     8    1
    14     7     9   ar
    15     9    10   ar
    16    10    11   ar
    17    11    12    2
    18    12    13    1
    19    13    14    2
    20    19    20   ar
    21    20    21   ar
    22    21    22   ar
    23    22    25    1
    24    25    26    3
    25    22    17   ar
    26    13     3    1
    27    11     5   ar
    28    15    16    1
@<TRIPOS>MOLECULE
*****
 26 28 0 0 0
SMALL
GASTEIGER

@<TRIPOS>ATOM
      1 C         138.6157  140.2038  164.7846 C.3     1  UNL1        0.0845
      2 C         138.0864  141.4801  164.2009 C.3     1  UNL1        0.0221
      3 C         139.1987  140.1962  166.1667 C.3     1  UNL1        0.1184
      4 C         140.4514  140.9686  166.4566 C.2     1  UNL1       -0.0143
      5 C         141.0344  140.9610  167.8387 C.ar    1  UNL1        0.0124
      6 C         142.2871  141.7334  168.1285 C.ar    1  UNL1        0.0124
      7 C         142.8700  141.7258  169.5106 C.ar    1  UNL1        0.0577
      8 CL        144.1228  142.4982  169.8005 Cl      1  UNL1       -0.0822
      9 C         142.2002  140.9458  170.6028 C.ar    1  UNL1        0.0127
     10 C         140.9474  140.1734  170.3130 C.ar    1  UNL1        0.0175
     11 C         140.3645  140.1810  168.9309 C.ar    1  UNL1        0.0731
     12 N         139.1117  139.4086  168.6410 N.am    1  UNL1       -0.1789
     13 C         138.5289  139.4162  167.2589 C.2     1  UNL1        0.2508
     14 O         137.2761  138.6438  166.9690 O.2     1  UNL1       -0.2726
     15 N         138.5622  138.9350  163.9863 N.pl3   1  UNL1       -0.3037
     16 H         137.9298  138.2229  164.2356 H       1  UNL1        0.1496
     17 C         141.8613  138.4317  161.8386 C.ar    1  UNL1        0.2387
     18 N         140.9512  138.6155  163.0168 N.ar    1  UNL1       -0.1783
     19 C         139.4721  138.7513  162.8081 C.ar    1  UNL1        0.2195
     20 N         138.9029  138.7033  161.4211 N.ar    1  UNL1       -0.2114
     21 C         139.8128  138.5196  160.2429 C.ar    1  UNL1        0.1168
     22 C         141.2921  138.3838  160.4516 C.ar    1  UNL1        0.1406
     23 C         144.0146  139.0537  163.1524 C.3     1  UNL1        0.2543
     24 O         143.3404  138.2959  162.0474 O.3     1  UNL1       -0.4556
     25 C         142.2020  138.2000  159.2734 C.1     1  UNL1        0.1067
     26 N         143.1119  138.0163  158.0952 N.1     1  UNL1       -0.1906
@<TRIPOS>BOND
     1    23    24    1
     2    24    17    1
     3    17    18   ar
     4    18    19   ar
     5    19    15    1
     6    15     1    1
     7     1     2    1
     8     1     3    1
     9     3     4    1
    10     4     5    2
    11     5     6   ar
    12     6     7   ar
    13     7     8    1
    14     7     9   ar
    15     9    10   ar
    16    10    11   ar
    17    11    12    2
    18    12    13    1
    19    13    14    2
    20    19    20   ar
    21    20    21   ar
    22    21    22   ar
    23    22    25    1
    24    25    26    3
    25    22    17   ar
    26    13     3    1
    27    11     5   ar
    28    15    16    1
@<TRIPOS>MOLECULE
*****
 26 28 0 0 0
SMALL
GASTEIGER

@<TRIPOS>ATOM
      1 C         138.5601  139.3485  165.2606 C.3     1  UNL1        0.0845
      2 C         138.2972  138.2396  166.2359 C.3     1  UNL1        0.0221
      3 C         139.7797  139.3067  164.3882 C.3     1  UNL1        0.1184
      4 C         141.0062  140.0781  164.7762 C.2     1  UNL1       -0.0143
      5 C         142.2257  140.0363  163.9038 C.ar    1  UNL1        0.0124
      6 C         143.4522  140.8078  164.2917 C.ar    1  UNL1        0.0124
      7 C         144.6717  140.7659  163.4194 C.ar    1  UNL1        0.0577
      8 CL        145.8982  141.5374  163.8073 Cl      1  UNL1       -0.0822
      9 C         144.6647  139.9525  162.1591 C.ar    1  UNL1        0.0127
     10 C         143.4382  139.1810  161.7711 C.ar    1  UNL1        0.0175
     11 C         142.2188  139.2229  162.6435 C.ar    1  UNL1        0.0731
     12 N         140.9922  138.4514  162.2556 N.am    1  UNL1       -0.1789
     13 C         139.7727  138.4933  163.1279 C.2     1  UNL1        0.2508
     14 O         138.5462  137.7218  162.7400 O.2     1  UNL1       -0.2726
     15 N         137.6036  140.4993  165.1577 N.pl3   1  UNL1       -0.3037
     16 H         136.7176  140.4425  165.5832 H       1  UNL1        0.1496
     17 C         138.1192  143.0758  162.1835 C.ar    1  UNL1        0.2387
     18 N         137.7259  141.8384  162.9348 N.ar    1  UNL1       -0.1783
     19 C         137.9969  141.7366  164.4065 C.ar    1  UNL1        0.2195
     20 N         138.6612  142.8722  165.1271 N.ar    1  UNL1       -0.2114
     21 C         139.0545  144.1095  164.3760 C.ar    1  UNL1        0.1168
     22 C         138.7835  144.2113  162.9041 C.ar    1  UNL1        0.1406
     23 C         138.6569  142.3675  159.7424 C.3     1  UNL1        0.2543
     24 O         137.8482  143.1776  160.7118 O.3     1  UNL1       -0.4556
     25 C         139.1768  145.4486  162.1529 C.1     1  UNL1        0.1067
     26 N         139.5701  146.6860  161.4018 N.1     1  UNL1       -0.1906
@<TRIPOS>BOND
     1    23    24    1
     2    24    17    1
     3    17    18   ar
     4    18    19   ar
     5    19    15    1
     6    15     1    1
     7     1     2    1
     8     1     3    1
     9     3     4    1
    10     4     5    2
    11     5     6   ar
    12     6     7   ar
    13     7     8    1
    14     7     9   ar
    15     9    10   ar
    16    10    11   ar
    17    11    12    2
    18    12    13    1
    19    13    14    2
    20    19    20   ar
    21    20    21   ar
    22    21    22   ar
    23    22    25    1
    24    25    26    3
    25    22    17   ar
    26    13     3    1
    27    11     5   ar
    28    15    16    1
@<TRIPOS>MOLECULE
*****
 26 28 0 0 0
SMALL
GASTEIGER

@<TRIPOS>ATOM
      1 C         138.7213  143.9035  164.7808 C.3     1  UNL1        0.0845
      2 C         138.5517  145.0119  165.7771 C.3     1  UNL1        0.0221
      3 C         140.0653  143.2650  164.5909 C.3     1  UNL1        0.1184
      4 C         140.3867  141.9736  165.2830 C.2     1  UNL1       -0.0143
      5 C         141.7307  141.3351  165.0931 C.ar    1  UNL1        0.0124
      6 C         142.0521  140.0437  165.7852 C.ar    1  UNL1        0.0124
      7 C         143.3960  139.4053  165.5953 C.ar    1  UNL1        0.0577
      8 CL        143.7174  138.1138  166.2874 Cl      1  UNL1       -0.0822
      9 C         144.4186  140.0581  164.7132 C.ar    1  UNL1        0.0127
     10 C         144.0972  141.3495  164.0210 C.ar    1  UNL1        0.0175
     11 C         142.7533  141.9880  164.2110 C.ar    1  UNL1        0.0731
     12 N         142.4319  143.2794  163.5188 N.am    1  UNL1       -0.1789
     13 C         141.0879  143.9179  163.7088 C.2     1  UNL1        0.2508
     14 O         140.7665  145.2093  163.0167 O.2     1  UNL1       -0.2726
     15 N         137.5471  143.4336  163.9744 N.pl3   1  UNL1       -0.3037
     16 H         136.6317  143.6456  164.2683 H       1  UNL1        0.1496
     17 C         138.3923  142.5439  160.2003 C.ar    1  UNL1        0.2387
     18 N         138.1719  143.3367  161.4546 N.ar    1  UNL1       -0.1783
     19 C         137.7675  142.6408  162.7203 C.ar    1  UNL1        0.2195
     20 N         137.5836  141.1522  162.7320 N.ar    1  UNL1       -0.2114
     21 C         137.8040  140.3594  161.4779 C.ar    1  UNL1        0.1168
     22 C         138.2084  141.0552  160.2120 C.ar    1  UNL1        0.1406
     23 C         140.1034  143.9731  158.8664 C.3     1  UNL1        0.2543
     24 O         138.7967  143.2397  158.9346 O.3     1  UNL1       -0.4556
     25 C         138.4288  140.2624  158.9579 C.1     1  UNL1        0.1067
     26 N         138.6493  139.4696  157.7038 N.1     1  UNL1       -0.1906
@<TRIPOS>BOND
     1    23    24    1
     2    24    17    1
     3    17    18   ar
     4    18    19   ar
     5    19    15    1
     6    15     1    1
     7     1     2    1
     8     1     3    1
     9     3     4    1
    10     4     5    2
    11     5     6   ar
    12     6     7   ar
    13     7     8    1
    14     7     9   ar
    15     9    10   ar
    16    10    11   ar
    17    11    12    2
    18    12    13    1
    19    13    14    2
    20    19    20   ar
    21    20    21   ar
    22    21    22   ar
    23    22    25    1
    24    25    26    3
    25    22    17   ar
    26    13     3    1
    27    11     5   ar
    28    15    16    1
@<TRIPOS>MOLECULE
*****
 26 28 0 0 0
SMALL
GASTEIGER

@<TRIPOS>ATOM
      1 C         138.7677  144.0340  164.2136 C.3     1  UNL1        0.0845
      2 C         138.3844  144.7240  165.4891 C.3     1  UNL1        0.0221
      3 C         139.1237  142.5768  164.2267 C.3     1  UNL1        0.1184
      4 C         140.3666  142.1147  164.9278 C.2     1  UNL1       -0.0143
      5 C         140.7225  140.6575  164.9410 C.ar    1  UNL1        0.0124
      6 C         141.9654  140.1954  165.6420 C.ar    1  UNL1        0.0124
      7 C         142.3213  138.7383  165.6552 C.ar    1  UNL1        0.0577
      8 CL        143.5643  138.2761  166.3563 Cl      1  UNL1       -0.0822
      9 C         141.4343  137.7434  164.9672 C.ar    1  UNL1        0.0127
     10 C         140.1914  138.2055  164.2661 C.ar    1  UNL1        0.0175
     11 C         139.8355  139.6626  164.2530 C.ar    1  UNL1        0.0731
     12 N         138.5925  140.1248  163.5519 N.am    1  UNL1       -0.1789
     13 C         138.2366  141.5819  163.5388 C.2     1  UNL1        0.2508
     14 O         136.9937  142.0441  162.8377 O.2     1  UNL1       -0.2726
     15 N         138.7950  144.8011  162.9248 N.pl3   1  UNL1       -0.3037
     16 H         138.1597  145.5385  162.7774 H       1  UNL1        0.1496
     17 C         142.2520  144.0807  161.1136 C.ar    1  UNL1        0.2387
     18 N         141.2565  144.4371  162.1776 N.ar    1  UNL1       -0.1783
     19 C         139.7904  144.4446  161.8608 C.ar    1  UNL1        0.2195
     20 N         139.3196  144.0956  160.4800 N.ar    1  UNL1       -0.2114
     21 C         140.3150  143.7392  159.4160 C.ar    1  UNL1        0.1168
     22 C         141.7812  143.7317  159.7328 C.ar    1  UNL1        0.1406
     23 C         144.1831  143.7631  162.8223 C.3     1  UNL1        0.2543
     24 O         143.7181  144.0732  161.4303 O.3     1  UNL1       -0.4556
     25 C         142.7765  143.3752  158.6688 C.1     1  UNL1        0.1067
     26 N         143.7719  143.0188  157.6047 N.1     1  UNL1       -0.1906
@<TRIPOS>BOND
     1    23    24    1
     2    24    17    1
     3    17    18   ar
     4    18    19   ar
     5    19    15    1
     6    15     1    1
     7     1     2    1
     8     1     3    1
     9     3     4    1
    10     4     5    2
    11     5     6   ar
    12     6     7   ar
    13     7     8    1
    14     7     9   ar
    15     9    10   ar
    16    10    11   ar
    17    11    12    2
    18    12    13    1
    19    13    14    2
    20    19    20   ar
    21    20    21   ar
    22    21    22   ar
    23    22    25    1
    24    25    26    3
    25    22    17   ar
    26    13     3    1
    27    11     5   ar
    28    15    16    1
@<TRIPOS>MOLECULE
*****
 26 28 0 0 0
SMALL
GASTEIGER

@<TRIPOS>ATOM
      1 C         139.5831  143.6775  159.8653 C.3     1  UNL1        0.0845
      2 C         139.8532  144.1643  158.4725 C.3     1  UNL1        0.0221
      3 C         140.5742  143.9455  160.9589 C.3     1  UNL1        0.1184
      4 C         141.6838  142.9709  161.2210 C.2     1  UNL1       -0.0143
      5 C         142.6749  143.2389  162.3146 C.ar    1  UNL1        0.0124
      6 C         143.7845  142.2643  162.5767 C.ar    1  UNL1        0.0124
      7 C         144.7755  142.5324  163.6703 C.ar    1  UNL1        0.0577
      8 CL        145.8852  141.5577  163.9324 Cl      1  UNL1       -0.0822
      9 C         144.6569  143.7751  164.5018 C.ar    1  UNL1        0.0127
     10 C         143.5473  144.7498  164.2398 C.ar    1  UNL1        0.0175
     11 C         142.5563  144.4817  163.1462 C.ar    1  UNL1        0.0731
     12 N         141.4466  145.4564  162.8841 N.am    1  UNL1       -0.1789
     13 C         140.4556  145.1883  161.7905 C.2     1  UNL1        0.2508
     14 O         139.3459  146.1630  161.5284 O.2     1  UNL1       -0.2726
     15 N         138.3220  142.9225  160.1646 N.pl3   1  UNL1       -0.3037
     16 H         137.5654  142.9591  159.5357 H       1  UNL1        0.1496
     17 C         138.3818  139.8271  162.6474 C.ar    1  UNL1        0.2387
     18 N         138.4902  140.6379  161.3901 N.ar    1  UNL1       -0.1783
     19 C         138.2136  142.1118  161.4219 C.ar    1  UNL1        0.2195
     20 N         137.8287  142.7750  162.7111 N.ar    1  UNL1       -0.2114
     21 C         137.7203  141.9643  163.9684 C.ar    1  UNL1        0.1168
     22 C         137.9969  140.4903  163.9366 C.ar    1  UNL1        0.1406
     23 C         140.0252  137.8542  162.2509 C.3     1  UNL1        0.2543
     24 O         138.6584  138.3532  162.6156 O.3     1  UNL1       -0.4556
     25 C         137.8885  139.6796  165.1940 C.1     1  UNL1        0.1067
     26 N         137.7801  138.8688  166.4513 N.1     1  UNL1       -0.1906
@<TRIPOS>BOND
     1    23    24    1
     2    24    17    1
     3    17    18   ar
     4    18    19   ar
     5    19    15    1
     6    15     1    1
     7     1     2    1
     8     1     3    1
     9     3     4    1
    10     4     5    2
    11     5     6   ar
    12     6     7   ar
    13     7     8    1
    14     7     9   ar
    15     9    10   ar
    16    10    11   ar
    17    11    12    2
    18    12    13    1
    19    13    14    2
    20    19    20   ar
    21    20    21   ar
    22    21    22   ar
    23    22    25    1
    24    25    26    3
    25    22    17   ar
    26    13     3    1
    27    11     5   ar
    28    15    16    1
