@<TRIPOS>MOLECULE
*****
 42 46 0 0 0
SMALL
GASTEIGER

@<TRIPOS>ATOM
      1 C         143.0472  142.5177  160.5467 C.3     1  UNL1        0.1287
      2 C         143.5851  142.2309  161.9172 C.ar    1  UNL1        0.1351
      3 N         145.0073  142.4061  162.3607 N.ar    1  UNL1       -0.2279
      4 C         145.0964  142.0019  163.8025 C.ar    1  UNL1        0.1171
      5 C         143.7292  141.5770  164.2500 C.ar    1  UNL1        0.0769
      6 N         142.7952  141.7185  163.0849 N.ar    1  UNL1       -0.3394
      7 H         141.8328  141.5114  163.0863 H       1  UNL1        0.1671
      8 C         143.3608  141.0951  165.6220 C.ar    1  UNL1        0.0172
      9 C         143.1773  139.6285  165.8776 C.ar    1  UNL1        0.0015
     10 C         142.8089  139.1466  167.2494 C.ar    1  UNL1        0.0000
     11 C         142.6240  140.1314  168.3658 C.ar    1  UNL1        0.0000
     12 C         142.2557  139.6495  169.7376 C.ar    1  UNL1        0.0000
     13 C         142.0708  140.6342  170.8539 C.ar    1  UNL1        0.0000
     14 C         142.2544  142.1008  170.5983 C.ar    1  UNL1        0.0000
     15 C         142.6228  142.5827  169.2264 C.ar    1  UNL1        0.0000
     16 C         142.8076  141.5980  168.1102 C.ar    1  UNL1        0.0000
     17 C         143.1760  142.0799  166.7382 C.ar    1  UNL1        0.0015
     18 N         143.2934  141.5507  159.4268 N.am    1  UNL1       -0.2956
     19 C         142.6776  140.1836  159.4672 C.2     1  UNL1        0.2537
     20 O         141.8155  139.7834  160.6276 O.2     1  UNL1       -0.2695
     21 H         143.8592  141.8133  158.6651 H       1  UNL1        0.1501
     22 C         142.9238  139.2167  158.3472 C.ar    1  UNL1        0.1033
     23 C         143.6413  139.5172  157.0647 C.ar    1  UNL1        0.1105
     24 N         143.6567  138.2657  156.2379 N.ar    1  UNL1       -0.2346
     25 C         142.9487  137.1916  157.0095 C.ar    1  UNL1        0.1347
     26 S         142.4957  137.7794  158.3131 S.2     1  UNL1       -0.0599
     27 C         142.2631  143.7716  160.2960 C.3     1  UNL1        0.0274
     28 C         140.7936  143.8097  160.5949 C.3     1  UNL1        0.0039
     29 C         139.8238  143.1246  159.6784 C.3     1  UNL1        0.0213
     30 C         139.1016  141.8922  160.1363 C.3     1  UNL1        0.0897
     31 C         138.4917  141.7199  162.6558 C.2     1  UNL1        0.2463
     32 O         137.3503  142.6699  162.4444 O.2     1  UNL1       -0.2701
     33 N         139.3674  141.3311  161.5017 N.am    1  UNL1       -0.3009
     34 H         140.1165  140.7075  161.6404 H       1  UNL1        0.1497
     35 C         139.4324  142.0034  165.0610 C.ar    1  UNL1        0.0296
     36 C         139.6981  141.4423  166.4265 C.ar    1  UNL1        0.0063
     37 C         139.2888  140.0365  166.7523 C.ar    1  UNL1        0.0005
     38 C         138.6137  139.1918  165.7126 C.ar    1  UNL1        0.0002
     39 C         138.3480  139.7529  164.3471 C.ar    1  UNL1        0.0050
     40 C         138.7574  141.1588  164.0213 C.ar    1  UNL1        0.0590
     41 C         139.0052  144.5621  165.2054 C.3     1  UNL1        0.0742
     42 S         139.8418  143.4093  164.7351 S.3     1  UNL1       -0.1126
@<TRIPOS>BOND
     1    41    42    1
     2    42    35    1
     3    35    36   ar
     4    36    37   ar
     5    37    38   ar
     6    38    39   ar
     7    39    40   ar
     8    40    31    1
     9    31    32    2
    10    31    33   am
    11    33    30    1
    12    30    29    1
    13    29    28    1
    14    28    27    1
    15     1    27    1
    16     1    18    1
    17    18    19   am
    18    19    20    2
    19    19    22    1
    20    22    23   ar
    21    23    24   ar
    22    24    25   ar
    23    25    26   ar
    24     1     2    1
    25     2     3   ar
    26     3     4   ar
    27     4     5   ar
    28     5     8    1
    29     8     9   ar
    30     9    10   ar
    31    10    11   ar
    32    11    12   ar
    33    12    13   ar
    34    13    14   ar
    35    14    15   ar
    36    15    16   ar
    37    16    17   ar
    38     5     6   ar
    39    40    35   ar
    40    26    22   ar
    41     6     2   ar
    42    17     8   ar
    43    16    11   ar
    44    33    34    1
    45    18    21    1
    46     6     7    1
@<TRIPOS>MOLECULE
*****
 42 46 0 0 0
SMALL
GASTEIGER

@<TRIPOS>ATOM
      1 C         142.9647  138.4223  158.1039 C.3     1  UNL1        0.1287
      2 C         142.8558  138.3366  159.5974 C.ar    1  UNL1        0.1351
      3 N         143.9884  138.0988  160.5519 N.ar    1  UNL1       -0.2279
      4 C         143.4277  138.0889  161.9432 C.ar    1  UNL1        0.1171
      5 C         141.9487  138.3206  161.8485 C.ar    1  UNL1        0.0769
      6 N         141.5953  138.4736  160.3988 N.ar    1  UNL1       -0.3394
      7 H         140.6942  138.6356  160.0369 H       1  UNL1        0.1671
      8 C         140.9913  138.3874  163.0013 C.ar    1  UNL1        0.0172
      9 C         139.6807  137.6611  162.9308 C.ar    1  UNL1        0.0015
     10 C         138.7233  137.7279  164.0835 C.ar    1  UNL1        0.0000
     11 C         139.0764  138.5210  165.3068 C.ar    1  UNL1        0.0000
     12 C         138.1189  138.5878  166.4595 C.ar    1  UNL1        0.0000
     13 C         138.4720  139.3809  167.6828 C.ar    1  UNL1        0.0000
     14 C         139.7826  140.1072  167.7533 C.ar    1  UNL1        0.0000
     15 C         140.7400  140.0404  166.6005 C.ar    1  UNL1        0.0000
     16 C         140.3869  139.2473  165.3773 C.ar    1  UNL1        0.0000
     17 C         141.3444  139.1805  164.2245 C.ar    1  UNL1        0.0015
     18 N         143.0349  137.1683  157.2838 N.am    1  UNL1       -0.2956
     19 C         141.7868  136.5958  156.6804 C.2     1  UNL1        0.2537
     20 O         140.4682  137.2773  156.8971 O.2     1  UNL1       -0.2695
     21 H         143.9003  136.7210  157.1415 H       1  UNL1        0.1501
     22 C         141.8570  135.3419  155.8603 C.ar    1  UNL1        0.1033
     23 C         142.5448  134.0683  156.2539 C.ar    1  UNL1        0.1105
     24 N         142.3647  133.0806  155.1394 N.ar    1  UNL1       -0.2346
     25 C         141.5657  133.7438  154.0569 C.ar    1  UNL1        0.1347
     26 S         141.2519  135.1413  154.5024 S.2     1  UNL1       -0.0599
     27 C         143.0035  139.7620  157.4304 C.3     1  UNL1        0.0274
     28 C         143.1566  141.0092  158.2495 C.3     1  UNL1        0.0039
     29 C         142.1406  142.1073  158.1410 C.3     1  UNL1        0.0213
     30 C         142.0612  143.1634  159.2034 C.3     1  UNL1        0.0897
     31 C         141.1786  142.2314  161.4622 C.2     1  UNL1        0.2463
     32 O         142.4399  141.4365  161.6270 O.2     1  UNL1       -0.2701
     33 N         140.9893  143.0948  160.2503 N.am    1  UNL1       -0.3009
     34 H         140.1614  143.6166  160.1421 H       1  UNL1        0.1497
     35 C         140.2680  142.9128  163.7982 C.ar    1  UNL1        0.0296
     36 C         139.1961  142.8442  164.8451 C.ar    1  UNL1        0.0063
     37 C         137.9627  142.0256  164.6032 C.ar    1  UNL1        0.0005
     38 C         137.8012  141.2756  163.3142 C.ar    1  UNL1        0.0002
     39 C         138.8732  141.3442  162.2672 C.ar    1  UNL1        0.0050
     40 C         140.1067  142.1628  162.5092 C.ar    1  UNL1        0.0590
     41 C         141.5336  145.1762  163.6381 C.3     1  UNL1        0.0742
     42 S         141.5015  143.7314  164.0401 S.3     1  UNL1       -0.1126
@<TRIPOS>BOND
     1    41    42    1
     2    42    35    1
     3    35    36   ar
     4    36    37   ar
     5    37    38   ar
     6    38    39   ar
     7    39    40   ar
     8    40    31    1
     9    31    32    2
    10    31    33   am
    11    33    30    1
    12    30    29    1
    13    29    28    1
    14    28    27    1
    15     1    27    1
    16     1    18    1
    17    18    19   am
    18    19    20    2
    19    19    22    1
    20    22    23   ar
    21    23    24   ar
    22    24    25   ar
    23    25    26   ar
    24     1     2    1
    25     2     3   ar
    26     3     4   ar
    27     4     5   ar
    28     5     8    1
    29     8     9   ar
    30     9    10   ar
    31    10    11   ar
    32    11    12   ar
    33    12    13   ar
    34    13    14   ar
    35    14    15   ar
    36    15    16   ar
    37    16    17   ar
    38     5     6   ar
    39    40    35   ar
    40    26    22   ar
    41     6     2   ar
    42    17     8   ar
    43    16    11   ar
    44    33    34    1
    45    18    21    1
    46     6     7    1
@<TRIPOS>MOLECULE
*****
 42 46 0 0 0
SMALL
GASTEIGER

@<TRIPOS>ATOM
      1 C         141.7126  139.1631  158.5021 C.3     1  UNL1        0.1287
      2 C         142.4361  139.5104  159.7693 C.ar    1  UNL1        0.1351
      3 N         143.7908  140.1475  159.8648 N.ar    1  UNL1       -0.2279
      4 C         144.1239  140.3125  161.3181 C.ar    1  UNL1        0.1171
      5 C         142.9751  139.7774  162.1206 C.ar    1  UNL1        0.0769
      6 N         141.9320  139.2817  161.1634 N.ar    1  UNL1       -0.3394
      7 H         141.0682  138.8772  161.4073 H       1  UNL1        0.1671
      8 C         142.8852  139.7439  163.6176 C.ar    1  UNL1        0.0172
      9 C         142.6227  138.4471  164.3243 C.ar    1  UNL1        0.0015
     10 C         142.5328  138.4136  165.8212 C.ar    1  UNL1        0.0000
     11 C         142.7055  139.6769  166.6114 C.ar    1  UNL1        0.0000
     12 C         142.6156  139.6433  168.1083 C.ar    1  UNL1        0.0000
     13 C         142.7883  140.9065  168.8985 C.ar    1  UNL1        0.0000
     14 C         143.0508  142.2033  168.1918 C.ar    1  UNL1        0.0000
     15 C         143.1407  142.2368  166.6949 C.ar    1  UNL1        0.0000
     16 C         142.9680  140.9736  165.9047 C.ar    1  UNL1        0.0000
     17 C         143.0579  141.0071  164.4077 C.ar    1  UNL1        0.0015
     18 N         141.6256  137.7337  158.0557 N.am    1  UNL1       -0.2956
     19 C         142.6764  137.1660  157.1483 C.2     1  UNL1        0.2537
     20 O         143.8144  138.0276  156.6873 O.2     1  UNL1       -0.2695
     21 H         140.8788  137.1681  158.3583 H       1  UNL1        0.1501
     22 C         142.5894  135.7366  156.7020 C.ar    1  UNL1        0.1033
     23 C         143.3022  134.5733  157.3254 C.ar    1  UNL1        0.1105
     24 N         142.9276  133.3372  156.5625 N.ar    1  UNL1       -0.2346
     25 C         141.9831  133.7366  155.4677 C.ar    1  UNL1        0.1347
     26 S         141.7741  135.2195  155.5539 S.2     1  UNL1       -0.0599
     27 C         141.0761  140.2451  157.6812 C.3     1  UNL1        0.0274
     28 C         140.3981  141.3995  158.3578 C.3     1  UNL1        0.0039
     29 C         141.1809  142.6313  158.7036 C.3     1  UNL1        0.0213
     30 C         140.9382  143.3331  160.0069 C.3     1  UNL1        0.0897
     31 C         139.5169  142.4756  162.0055 C.2     1  UNL1        0.2463
     32 O         138.3206  143.2026  161.4666 O.2     1  UNL1       -0.2701
     33 N         140.8257  142.5408  161.2756 N.am    1  UNL1       -0.3009
     34 H         141.6109  142.0636  161.6292 H       1  UNL1        0.1497
     35 C         139.6294  142.3515  164.5982 C.ar    1  UNL1        0.0296
     36 C         139.5168  141.5592  165.8669 C.ar    1  UNL1        0.0063
     37 C         139.1791  140.0988  165.8117 C.ar    1  UNL1        0.0005
     38 C         138.9540  139.4306  164.4877 C.ar    1  UNL1        0.0002
     39 C         139.0666  140.2228  163.2190 C.ar    1  UNL1        0.0050
     40 C         139.4043  141.6834  163.2742 C.ar    1  UNL1        0.0590
     41 C         138.8812  144.8254  164.8630 C.3     1  UNL1        0.0742
     42 S         139.9671  143.8120  164.6534 S.3     1  UNL1       -0.1126
@<TRIPOS>BOND
     1    41    42    1
     2    42    35    1
     3    35    36   ar
     4    36    37   ar
     5    37    38   ar
     6    38    39   ar
     7    39    40   ar
     8    40    31    1
     9    31    32    2
    10    31    33   am
    11    33    30    1
    12    30    29    1
    13    29    28    1
    14    28    27    1
    15     1    27    1
    16     1    18    1
    17    18    19   am
    18    19    20    2
    19    19    22    1
    20    22    23   ar
    21    23    24   ar
    22    24    25   ar
    23    25    26   ar
    24     1     2    1
    25     2     3   ar
    26     3     4   ar
    27     4     5   ar
    28     5     8    1
    29     8     9   ar
    30     9    10   ar
    31    10    11   ar
    32    11    12   ar
    33    12    13   ar
    34    13    14   ar
    35    14    15   ar
    36    15    16   ar
    37    16    17   ar
    38     5     6   ar
    39    40    35   ar
    40    26    22   ar
    41     6     2   ar
    42    17     8   ar
    43    16    11   ar
    44    33    34    1
    45    18    21    1
    46     6     7    1
@<TRIPOS>MOLECULE
*****
 42 46 0 0 0
SMALL
GASTEIGER

@<TRIPOS>ATOM
      1 C         143.4810  142.8900  160.5341 C.3     1  UNL1        0.1287
      2 C         143.9432  142.2908  161.8292 C.ar    1  UNL1        0.1351
      3 N         145.3502  141.8930  162.1642 N.ar    1  UNL1       -0.2279
      4 C         145.3561  141.3405  163.5589 C.ar    1  UNL1        0.1171
      5 C         143.9528  141.3970  164.0857 C.ar    1  UNL1        0.0769
      6 N         143.0796  141.9843  163.0167 N.ar    1  UNL1       -0.3394
      7 H         142.1099  142.1411  163.0829 H       1  UNL1        0.1671
      8 C         143.5018  140.9454  165.4432 C.ar    1  UNL1        0.0172
      9 C         143.2748  139.4872  165.7114 C.ar    1  UNL1        0.0015
     10 C         142.8239  139.0356  167.0688 C.ar    1  UNL1        0.0000
     11 C         142.6000  140.0423  168.1582 C.ar    1  UNL1        0.0000
     12 C         142.1491  139.5907  169.5156 C.ar    1  UNL1        0.0000
     13 C         141.9252  140.5973  170.6048 C.ar    1  UNL1        0.0000
     14 C         142.1523  142.0556  170.3366 C.ar    1  UNL1        0.0000
     15 C         142.6032  142.5072  168.9792 C.ar    1  UNL1        0.0000
     16 C         142.8270  141.5005  167.8900 C.ar    1  UNL1        0.0000
     17 C         143.2780  141.9521  166.5324 C.ar    1  UNL1        0.0015
     18 N         144.3053  142.7197  159.2925 N.am    1  UNL1       -0.2956
     19 C         144.1826  141.4670  158.4767 C.2     1  UNL1        0.2537
     20 O         143.2356  140.3845  158.9024 O.2     1  UNL1       -0.2695
     21 H         144.9268  143.4302  159.0130 H       1  UNL1        0.1501
     22 C         145.0068  141.2969  157.2351 C.ar    1  UNL1        0.1033
     23 C         144.7955  140.2603  156.1717 C.ar    1  UNL1        0.1105
     24 N         145.8452  140.4561  155.1182 N.ar    1  UNL1       -0.2346
     25 C         146.7054  141.6138  155.5305 C.ar    1  UNL1        0.1347
     26 S         146.1872  142.1334  156.8388 S.2     1  UNL1       -0.0599
     27 C         142.1946  143.6594  160.4806 C.3     1  UNL1        0.0274
     28 C         141.1734  143.3412  159.4289 C.3     1  UNL1        0.0039
     29 C         139.7133  143.3576  159.7718 C.3     1  UNL1        0.0213
     30 C         139.0096  142.0787  160.1173 C.3     1  UNL1        0.0897
     31 C         139.8437  140.8486  162.2482 C.2     1  UNL1        0.2463
     32 O         141.0634  140.3894  161.5057 O.2     1  UNL1       -0.2701
     33 N         138.8168  141.6933  161.5540 N.am    1  UNL1       -0.3009
     34 H         138.0162  141.9947  162.0414 H       1  UNL1        0.1497
     35 C         139.3164  139.0454  164.0429 C.ar    1  UNL1        0.0296
     36 C         139.1236  138.6600  165.4797 C.ar    1  UNL1        0.0063
     37 C         139.2655  139.6923  166.5586 C.ar    1  UNL1        0.0005
     38 C         139.6000  141.1101  166.2008 C.ar    1  UNL1        0.0002
     39 C         139.7928  141.4955  164.7640 C.ar    1  UNL1        0.0050
     40 C         139.6510  140.4632  163.6850 C.ar    1  UNL1        0.0590
     41 C         137.9574  138.0068  162.0872 C.3     1  UNL1        0.0742
     42 S         139.1746  138.0131  162.9639 S.3     1  UNL1       -0.1126
@<TRIPOS>BOND
     1    41    42    1
     2    42    35    1
     3    35    36   ar
     4    36    37   ar
     5    37    38   ar
     6    38    39   ar
     7    39    40   ar
     8    40    31    1
     9    31    32    2
    10    31    33   am
    11    33    30    1
    12    30    29    1
    13    29    28    1
    14    28    27    1
    15     1    27    1
    16     1    18    1
    17    18    19   am
    18    19    20    2
    19    19    22    1
    20    22    23   ar
    21    23    24   ar
    22    24    25   ar
    23    25    26   ar
    24     1     2    1
    25     2     3   ar
    26     3     4   ar
    27     4     5   ar
    28     5     8    1
    29     8     9   ar
    30     9    10   ar
    31    10    11   ar
    32    11    12   ar
    33    12    13   ar
    34    13    14   ar
    35    14    15   ar
    36    15    16   ar
    37    16    17   ar
    38     5     6   ar
    39    40    35   ar
    40    26    22   ar
    41     6     2   ar
    42    17     8   ar
    43    16    11   ar
    44    33    34    1
    45    18    21    1
    46     6     7    1
@<TRIPOS>MOLECULE
*****
 42 46 0 0 0
SMALL
GASTEIGER

@<TRIPOS>ATOM
      1 C         142.3726  143.3416  159.0800 C.3     1  UNL1        0.1287
      2 C         142.2140  143.6379  160.5418 C.ar    1  UNL1        0.1351
      3 N         141.8990  144.9765  161.1410 N.ar    1  UNL1       -0.2279
      4 C         141.8328  144.8134  162.6308 C.ar    1  UNL1        0.1171
      5 C         142.1069  143.3741  162.9521 C.ar    1  UNL1        0.0769
      6 N         142.3425  142.6476  161.6611 N.ar    1  UNL1       -0.3394
      7 H         142.5457  141.6891  161.5652 H       1  UNL1        0.1671
      8 C         142.1396  142.7678  164.3237 C.ar    1  UNL1        0.0172
      9 C         143.3269  142.9891  165.2134 C.ar    1  UNL1        0.0015
     10 C         143.3596  142.3828  166.5850 C.ar    1  UNL1        0.0000
     11 C         142.2052  141.5551  167.0670 C.ar    1  UNL1        0.0000
     12 C         142.2379  140.9489  168.4386 C.ar    1  UNL1        0.0000
     13 C         141.0835  140.1213  168.9205 C.ar    1  UNL1        0.0000
     14 C         139.8963  139.9000  168.0308 C.ar    1  UNL1        0.0000
     15 C         139.8635  140.5062  166.6592 C.ar    1  UNL1        0.0000
     16 C         141.0179  141.3338  166.1773 C.ar    1  UNL1        0.0000
     17 C         140.9852  141.9402  164.8057 C.ar    1  UNL1        0.0015
     18 N         141.2762  143.6958  158.1196 N.am    1  UNL1       -0.2956
     19 C         141.1968  145.0809  157.5495 C.2     1  UNL1        0.2537
     20 O         142.2139  146.1120  157.9398 O.2     1  UNL1       -0.2695
     21 H         140.6086  143.0191  157.8634 H       1  UNL1        0.1501
     22 C         140.1004  145.4350  156.5891 C.ar    1  UNL1        0.1033
     23 C         139.7936  146.8079  156.0685 C.ar    1  UNL1        0.1105
     24 N         138.6218  146.6998  155.1383 N.ar    1  UNL1       -0.2346
     25 C         138.2044  145.2599  155.0839 C.ar    1  UNL1        0.1347
     26 S         139.1182  144.4783  155.9805 S.2     1  UNL1       -0.0599
     27 C         143.6278  142.6912  158.5785 C.3     1  UNL1        0.0274
     28 C         143.9771  141.2992  159.0147 C.3     1  UNL1        0.0039
     29 C         143.4752  140.1204  158.2346 C.3     1  UNL1        0.0213
     30 C         142.7945  138.9870  158.9431 C.3     1  UNL1        0.0897
     31 C         142.2847  139.2695  161.4749 C.2     1  UNL1        0.2463
     32 O         141.1124  140.1437  161.1413 O.2     1  UNL1       -0.2701
     33 N         143.1258  138.6911  160.3758 N.am    1  UNL1       -0.3009
     34 H         143.8952  138.1173  160.5947 H       1  UNL1        0.1497
     35 C         141.7054  138.1052  163.7241 C.ar    1  UNL1        0.0296
     36 C         142.0366  137.8093  165.1569 C.ar    1  UNL1        0.0063
     37 C         143.2785  138.3820  165.7732 C.ar    1  UNL1        0.0005
     38 C         144.1891  139.2504  164.9567 C.ar    1  UNL1        0.0002
     39 C         143.8579  139.5463  163.5240 C.ar    1  UNL1        0.0050
     40 C         142.6159  138.9736  162.9076 C.ar    1  UNL1        0.0590
     41 C         139.1293  138.1574  163.3901 C.3     1  UNL1        0.0742
     42 S         140.4634  137.5326  163.1078 S.3     1  UNL1       -0.1126
@<TRIPOS>BOND
     1    41    42    1
     2    42    35    1
     3    35    36   ar
     4    36    37   ar
     5    37    38   ar
     6    38    39   ar
     7    39    40   ar
     8    40    31    1
     9    31    32    2
    10    31    33   am
    11    33    30    1
    12    30    29    1
    13    29    28    1
    14    28    27    1
    15     1    27    1
    16     1    18    1
    17    18    19   am
    18    19    20    2
    19    19    22    1
    20    22    23   ar
    21    23    24   ar
    22    24    25   ar
    23    25    26   ar
    24     1     2    1
    25     2     3   ar
    26     3     4   ar
    27     4     5   ar
    28     5     8    1
    29     8     9   ar
    30     9    10   ar
    31    10    11   ar
    32    11    12   ar
    33    12    13   ar
    34    13    14   ar
    35    14    15   ar
    36    15    16   ar
    37    16    17   ar
    38     5     6   ar
    39    40    35   ar
    40    26    22   ar
    41     6     2   ar
    42    17     8   ar
    43    16    11   ar
    44    33    34    1
    45    18    21    1
    46     6     7    1
@<TRIPOS>MOLECULE
*****
 42 46 0 0 0
SMALL
GASTEIGER

@<TRIPOS>ATOM
      1 C         142.3316  138.7870  158.8466 C.3     1  UNL1        0.1287
      2 C         141.2990  138.7455  159.9338 C.ar    1  UNL1        0.1351
      3 N         139.8587  138.3608  159.7675 N.ar    1  UNL1       -0.2279
      4 C         139.1949  138.4590  161.1092 C.ar    1  UNL1        0.1171
      5 C         140.2251  138.9043  162.1044 C.ar    1  UNL1        0.0769
      6 N         141.5254  139.0814  161.3780 N.ar    1  UNL1       -0.3394
      7 H         142.3778  139.3678  161.7788 H       1  UNL1        0.1671
      8 C         139.9951  139.1325  163.5691 C.ar    1  UNL1        0.0172
      9 C         138.6050  139.0677  164.1290 C.ar    1  UNL1        0.0015
     10 C         138.3750  139.2958  165.5936 C.ar    1  UNL1        0.0000
     11 C         139.5351  139.5888  166.4983 C.ar    1  UNL1        0.0000
     12 C         139.3051  139.8170  167.9629 C.ar    1  UNL1        0.0000
     13 C         140.4652  140.1100  168.8675 C.ar    1  UNL1        0.0000
     14 C         141.8552  140.1748  168.3075 C.ar    1  UNL1        0.0000
     15 C         142.0852  139.9466  166.8430 C.ar    1  UNL1        0.0000
     16 C         140.9252  139.6536  165.9384 C.ar    1  UNL1        0.0000
     17 C         141.1552  139.4255  164.4737 C.ar    1  UNL1        0.0015
     18 N         142.8410  137.5100  158.2467 N.am    1  UNL1       -0.2956
     19 C         142.1236  136.8884  157.0854 C.2     1  UNL1        0.2537
     20 O         140.8968  137.5437  156.5237 O.2     1  UNL1       -0.2695
     21 H         143.6461  137.0798  158.6154 H       1  UNL1        0.1501
     22 C         142.6331  135.6114  156.4856 C.ar    1  UNL1        0.1033
     23 C         143.4951  134.5958  157.1751 C.ar    1  UNL1        0.1105
     24 N         143.7647  133.4825  156.2066 N.ar    1  UNL1       -0.2346
     25 C         143.0693  133.8100  154.9185 C.ar    1  UNL1        0.1347
     26 S         142.3699  135.1258  155.0909 S.2     1  UNL1       -0.0599
     27 C         142.8549  140.1055  158.3592 C.3     1  UNL1        0.0274
     28 C         144.1401  140.6514  158.9072 C.3     1  UNL1        0.0039
     29 C         144.1622  141.9984  159.5670 C.3     1  UNL1        0.0213
     30 C         144.4399  142.1091  161.0369 C.3     1  UNL1        0.0897
     31 C         142.4928  143.2175  162.3522 C.2     1  UNL1        0.2463
     32 O         142.7975  144.5315  161.6960 O.2     1  UNL1       -0.2701
     33 N         143.3140  142.0063  162.0226 N.am    1  UNL1       -0.3009
     34 H         143.1140  141.1439  162.4533 H       1  UNL1        0.1497
     35 C         139.9756  142.8216  162.8598 C.ar    1  UNL1        0.0296
     36 C         138.8497  142.7189  163.8455 C.ar    1  UNL1        0.0063
     37 C         139.1150  142.9092  165.3095 C.ar    1  UNL1        0.0005
     38 C         140.5061  143.2024  165.7878 C.ar    1  UNL1        0.0002
     39 C         141.6321  143.3051  164.8021 C.ar    1  UNL1        0.0050
     40 C         141.3669  143.1147  163.3379 C.ar    1  UNL1        0.0590
     41 C         138.3676  142.1483  160.9333 C.3     1  UNL1        0.0742
     42 S         139.7104  142.6312  161.3957 S.3     1  UNL1       -0.1126
@<TRIPOS>BOND
     1    41    42    1
     2    42    35    1
     3    35    36   ar
     4    36    37   ar
     5    37    38   ar
     6    38    39   ar
     7    39    40   ar
     8    40    31    1
     9    31    32    2
    10    31    33   am
    11    33    30    1
    12    30    29    1
    13    29    28    1
    14    28    27    1
    15     1    27    1
    16     1    18    1
    17    18    19   am
    18    19    20    2
    19    19    22    1
    20    22    23   ar
    21    23    24   ar
    22    24    25   ar
    23    25    26   ar
    24     1     2    1
    25     2     3   ar
    26     3     4   ar
    27     4     5   ar
    28     5     8    1
    29     8     9   ar
    30     9    10   ar
    31    10    11   ar
    32    11    12   ar
    33    12    13   ar
    34    13    14   ar
    35    14    15   ar
    36    15    16   ar
    37    16    17   ar
    38     5     6   ar
    39    40    35   ar
    40    26    22   ar
    41     6     2   ar
    42    17     8   ar
    43    16    11   ar
    44    33    34    1
    45    18    21    1
    46     6     7    1
@<TRIPOS>MOLECULE
*****
 42 46 0 0 0
SMALL
GASTEIGER

@<TRIPOS>ATOM
      1 C         143.2468  142.8742  160.1979 C.3     1  UNL1        0.1287
      2 C         143.1249  143.1864  161.6599 C.ar    1  UNL1        0.1351
      3 N         143.7370  144.3606  162.3648 N.ar    1  UNL1       -0.2279
      4 C         143.3599  144.2792  163.8144 C.ar    1  UNL1        0.1171
      5 C         142.5148  143.0546  164.0053 C.ar    1  UNL1        0.0769
      6 N         142.3696  142.3793  162.6739 N.ar    1  UNL1       -0.3394
      7 H         141.8668  141.5516  162.4966 H       1  UNL1        0.1671
      8 C         141.9195  142.5875  165.3005 C.ar    1  UNL1        0.0172
      9 C         140.6602  143.2175  165.8175 C.ar    1  UNL1        0.0015
     10 C         140.0648  142.7505  167.1126 C.ar    1  UNL1        0.0000
     11 C         140.7288  141.6533  167.8908 C.ar    1  UNL1        0.0000
     12 C         140.1334  141.1863  169.1859 C.ar    1  UNL1        0.0000
     13 C         140.7973  140.0892  169.9641 C.ar    1  UNL1        0.0000
     14 C         142.0566  139.4592  169.4471 C.ar    1  UNL1        0.0000
     15 C         142.6520  139.9262  168.1520 C.ar    1  UNL1        0.0000
     16 C         141.9880  141.0233  167.3738 C.ar    1  UNL1        0.0000
     17 C         142.5834  141.4904  166.0786 C.ar    1  UNL1        0.0015
     18 N         142.7300  143.8451  159.1779 N.am    1  UNL1       -0.2956
     19 C         141.3878  143.6252  158.5456 C.2     1  UNL1        0.2537
     20 O         140.5621  142.4344  158.9333 O.2     1  UNL1       -0.2695
     21 H         143.2719  144.6266  158.9235 H       1  UNL1        0.1501
     22 C         140.8711  144.5961  157.5257 C.ar    1  UNL1        0.1033
     23 C         139.5716  144.4879  156.7844 C.ar    1  UNL1        0.1105
     24 N         139.4605  145.6707  155.8684 N.ar    1  UNL1       -0.2346
     25 C         140.6915  146.5099  156.0437 C.ar    1  UNL1        0.1347
     26 S         141.5633  145.8457  157.0679 S.2     1  UNL1       -0.0599
     27 C         143.8855  141.5910  159.7558 C.3     1  UNL1        0.0274
     28 C         143.2167  140.2805  160.0482 C.3     1  UNL1        0.0039
     29 C         144.0305  139.1118  160.5192 C.3     1  UNL1        0.0213
     30 C         143.9808  138.6950  161.9593 C.3     1  UNL1        0.0897
     31 C         141.5525  138.4866  162.8593 C.2     1  UNL1        0.2463
     32 O         141.3319  137.2870  161.9862 O.2     1  UNL1       -0.2701
     33 N         142.8770  139.1906  162.8458 N.am    1  UNL1       -0.3009
     34 H         143.0218  139.9780  163.4188 H       1  UNL1        0.1497
     35 C         139.4425  139.9601  163.2154 C.ar    1  UNL1        0.0296
     36 C         138.3386  140.4556  164.1019 C.ar    1  UNL1        0.0063
     37 C         138.2409  139.9733  165.5188 C.ar    1  UNL1        0.0005
     38 C         139.2471  138.9954  166.0493 C.ar    1  UNL1        0.0002
     39 C         140.3509  138.4998  165.1628 C.ar    1  UNL1        0.0050
     40 C         140.4487  138.9821  163.7457 C.ar    1  UNL1        0.0590
     41 C         138.8130  139.7149  160.7066 C.3     1  UNL1        0.0742
     42 S         139.5402  140.4424  161.7983 S.3     1  UNL1       -0.1126
@<TRIPOS>BOND
     1    41    42    1
     2    42    35    1
     3    35    36   ar
     4    36    37   ar
     5    37    38   ar
     6    38    39   ar
     7    39    40   ar
     8    40    31    1
     9    31    32    2
    10    31    33   am
    11    33    30    1
    12    30    29    1
    13    29    28    1
    14    28    27    1
    15     1    27    1
    16     1    18    1
    17    18    19   am
    18    19    20    2
    19    19    22    1
    20    22    23   ar
    21    23    24   ar
    22    24    25   ar
    23    25    26   ar
    24     1     2    1
    25     2     3   ar
    26     3     4   ar
    27     4     5   ar
    28     5     8    1
    29     8     9   ar
    30     9    10   ar
    31    10    11   ar
    32    11    12   ar
    33    12    13   ar
    34    13    14   ar
    35    14    15   ar
    36    15    16   ar
    37    16    17   ar
    38     5     6   ar
    39    40    35   ar
    40    26    22   ar
    41     6     2   ar
    42    17     8   ar
    43    16    11   ar
    44    33    34    1
    45    18    21    1
    46     6     7    1
@<TRIPOS>MOLECULE
*****
 42 46 0 0 0
SMALL
GASTEIGER

@<TRIPOS>ATOM
      1 C         141.7842  138.9856  158.9314 C.3     1  UNL1        0.1287
      2 C         140.8546  138.8493  160.1005 C.ar    1  UNL1        0.1351
      3 N         139.4700  138.2733  160.0636 N.ar    1  UNL1       -0.2279
      4 C         138.9059  138.3330  161.4523 C.ar    1  UNL1        0.1171
      5 C         139.9419  138.9459  162.3473 C.ar    1  UNL1        0.0769
      6 N         141.1462  139.2650  161.5120 N.ar    1  UNL1       -0.3394
      7 H         141.9814  139.6752  161.8336 H       1  UNL1        0.1671
      8 C         139.7986  139.1959  163.8195 C.ar    1  UNL1        0.0172
      9 C         138.4342  139.3277  164.4285 C.ar    1  UNL1        0.0015
     10 C         138.2909  139.5776  165.9005 C.ar    1  UNL1        0.0000
     11 C         139.5120  139.6957  166.7636 C.ar    1  UNL1        0.0000
     12 C         139.3687  139.9456  168.2357 C.ar    1  UNL1        0.0000
     13 C         140.5899  140.0637  169.0987 C.ar    1  UNL1        0.0000
     14 C         141.9543  139.9319  168.4897 C.ar    1  UNL1        0.0000
     15 C         142.0976  139.6819  167.0176 C.ar    1  UNL1        0.0000
     16 C         140.8765  139.5639  166.1546 C.ar    1  UNL1        0.0000
     17 C         141.0198  139.3139  164.6825 C.ar    1  UNL1        0.0015
     18 N         142.3204  137.7602  158.2525 N.am    1  UNL1       -0.2956
     19 C         141.6204  137.2026  157.0488 C.2     1  UNL1        0.2537
     20 O         140.3842  137.8704  156.5238 O.2     1  UNL1       -0.2695
     21 H         143.1318  137.3218  158.5971 H       1  UNL1        0.1501
     22 C         142.1567  135.9772  156.3701 C.ar    1  UNL1        0.1033
     23 C         143.2966  135.1297  156.8522 C.ar    1  UNL1        0.1105
     24 N         143.4916  134.0128  155.8701 N.ar    1  UNL1       -0.2346
     25 C         142.4722  134.1699  154.7809 C.ar    1  UNL1        0.1347
     26 S         141.6472  135.3840  155.0899 S.2     1  UNL1       -0.0599
     27 C         142.1778  140.3474  158.4409 C.3     1  UNL1        0.0274
     28 C         141.1444  141.4275  158.3163 C.3     1  UNL1        0.0039
     29 C         139.7715  141.0972  157.8103 C.3     1  UNL1        0.0213
     30 C         138.5630  141.5019  158.6014 C.3     1  UNL1        0.0897
     31 C         139.0098  142.8488  160.7776 C.2     1  UNL1        0.2463
     32 O         139.3156  144.0685  159.9599 O.2     1  UNL1       -0.2701
     33 N         138.6334  141.5655  160.0983 N.am    1  UNL1       -0.3009
     34 H         138.4327  140.7649  160.6350 H       1  UNL1        0.1497
     35 C         140.4119  142.8895  162.9645 C.ar    1  UNL1        0.0296
     36 C         140.4824  142.9531  164.4615 C.ar    1  UNL1        0.0063
     37 C         139.2210  143.0397  165.2687 C.ar    1  UNL1        0.0005
     38 C         137.8892  143.0627  164.5788 C.ar    1  UNL1        0.0002
     39 C         137.8188  142.9990  163.0818 C.ar    1  UNL1        0.0050
     40 C         139.0802  142.9125  162.2746 C.ar    1  UNL1        0.0590
     41 C         142.4205  144.0527  161.7971 C.3     1  UNL1        0.0742
     42 S         141.6733  142.8029  162.1573 S.3     1  UNL1       -0.1126
@<TRIPOS>BOND
     1    41    42    1
     2    42    35    1
     3    35    36   ar
     4    36    37   ar
     5    37    38   ar
     6    38    39   ar
     7    39    40   ar
     8    40    31    1
     9    31    32    2
    10    31    33   am
    11    33    30    1
    12    30    29    1
    13    29    28    1
    14    28    27    1
    15     1    27    1
    16     1    18    1
    17    18    19   am
    18    19    20    2
    19    19    22    1
    20    22    23   ar
    21    23    24   ar
    22    24    25   ar
    23    25    26   ar
    24     1     2    1
    25     2     3   ar
    26     3     4   ar
    27     4     5   ar
    28     5     8    1
    29     8     9   ar
    30     9    10   ar
    31    10    11   ar
    32    11    12   ar
    33    12    13   ar
    34    13    14   ar
    35    14    15   ar
    36    15    16   ar
    37    16    17   ar
    38     5     6   ar
    39    40    35   ar
    40    26    22   ar
    41     6     2   ar
    42    17     8   ar
    43    16    11   ar
    44    33    34    1
    45    18    21    1
    46     6     7    1
@<TRIPOS>MOLECULE
*****
 42 46 0 0 0
SMALL
GASTEIGER

@<TRIPOS>ATOM
      1 C         142.1009  142.4482  158.6248 C.3     1  UNL1        0.1287
      2 C         142.1178  142.9361  160.0430 C.ar    1  UNL1        0.1351
      3 N         142.6385  144.2620  160.5131 N.ar    1  UNL1       -0.2279
      4 C         142.4595  144.3292  162.0010 C.ar    1  UNL1        0.1171
      5 C         141.8282  143.0449  162.4503 C.ar    1  UNL1        0.0769
      6 N         141.6170  142.1839  161.2403 N.ar    1  UNL1       -0.3394
      7 H         141.2194  141.2833  161.2331 H       1  UNL1        0.1671
      8 C         141.4707  142.6848  163.8619 C.ar    1  UNL1        0.0172
      9 C         140.5445  143.5641  164.6486 C.ar    1  UNL1        0.0015
     10 C         140.1871  143.2040  166.0602 C.ar    1  UNL1        0.0000
     11 C         140.7559  141.9646  166.6851 C.ar    1  UNL1        0.0000
     12 C         140.3984  141.6046  168.0967 C.ar    1  UNL1        0.0000
     13 C         140.9672  140.3653  168.7215 C.ar    1  UNL1        0.0000
     14 C         141.8934  139.4860  167.9348 C.ar    1  UNL1        0.0000
     15 C         142.2509  139.8460  166.5232 C.ar    1  UNL1        0.0000
     16 C         141.6821  141.0853  165.8984 C.ar    1  UNL1        0.0000
     17 C         142.0395  141.4454  164.4867 C.ar    1  UNL1        0.0015
     18 N         143.3256  142.5853  157.7697 N.am    1  UNL1       -0.2956
     19 C         144.3659  141.5048  157.7706 C.2     1  UNL1        0.2537
     20 O         144.1816  140.2870  158.6267 O.2     1  UNL1       -0.2695
     21 H         143.4466  143.3846  157.2078 H       1  UNL1        0.1501
     22 C         145.5906  141.6421  156.9155 C.ar    1  UNL1        0.1033
     23 C         145.8919  140.8557  155.6742 C.ar    1  UNL1        0.1105
     24 N         147.2166  141.3174  155.1430 N.ar    1  UNL1       -0.2346
     25 C         147.7340  142.3892  156.0560 C.ar    1  UNL1        0.1347
     26 S         146.7291  142.5899  157.1515 S.2     1  UNL1       -0.0599
     27 C         140.8592  141.8229  158.0615 C.3     1  UNL1        0.0274
     28 C         140.7549  140.3307  157.9502 C.3     1  UNL1        0.0039
     29 C         139.4960  139.6331  158.3727 C.3     1  UNL1        0.0213
     30 C         139.5702  138.4140  159.2436 C.3     1  UNL1        0.0897
     31 C         139.9328  138.9581  161.7580 C.2     1  UNL1        0.2463
     32 O         141.3344  139.4017  161.4599 O.2     1  UNL1       -0.2701
     33 N         139.0507  138.4643  160.6498 N.am    1  UNL1       -0.3009
     34 H         138.1309  138.1731  160.8455 H       1  UNL1        0.1497
     35 C         138.6039  140.1847  163.6233 C.ar    1  UNL1        0.0296
     36 C         138.0844  140.2350  165.0296 C.ar    1  UNL1        0.0063
     37 C         138.3746  139.1088  165.9769 C.ar    1  UNL1        0.0005
     38 C         139.1841  137.9323  165.5180 C.ar    1  UNL1        0.0002
     39 C         139.7036  137.8821  164.1117 C.ar    1  UNL1        0.0050
     40 C         139.4134  139.0084  163.1643 C.ar    1  UNL1        0.0590
     41 C         137.4182  142.4368  163.1010 C.3     1  UNL1        0.0742
     42 S         138.3137  141.3110  162.6759 S.3     1  UNL1       -0.1126
@<TRIPOS>BOND
     1    41    42    1
     2    42    35    1
     3    35    36   ar
     4    36    37   ar
     5    37    38   ar
     6    38    39   ar
     7    39    40   ar
     8    40    31    1
     9    31    32    2
    10    31    33   am
    11    33    30    1
    12    30    29    1
    13    29    28    1
    14    28    27    1
    15     1    27    1
    16     1    18    1
    17    18    19   am
    18    19    20    2
    19    19    22    1
    20    22    23   ar
    21    23    24   ar
    22    24    25   ar
    23    25    26   ar
    24     1     2    1
    25     2     3   ar
    26     3     4   ar
    27     4     5   ar
    28     5     8    1
    29     8     9   ar
    30     9    10   ar
    31    10    11   ar
    32    11    12   ar
    33    12    13   ar
    34    13    14   ar
    35    14    15   ar
    36    15    16   ar
    37    16    17   ar
    38     5     6   ar
    39    40    35   ar
    40    26    22   ar
    41     6     2   ar
    42    17     8   ar
    43    16    11   ar
    44    33    34    1
    45    18    21    1
    46     6     7    1
