@<TRIPOS>MOLECULE
*****
 34 38 0 0 0
SMALL
GASTEIGER

@<TRIPOS>ATOM
      1 C         140.6776  142.2824  161.8538 C.ar    1  UNL1        0.1457
      2 N         141.7132  143.0500  161.0866 N.ar    1  UNL1       -0.2275
      3 C         142.5824  142.3447  160.0880 C.ar    1  UNL1        0.0940
      4 C         143.6796  142.8341  159.1899 C.ar    1  UNL1        0.0263
      5 C         144.1914  141.6638  158.4035 C.ar    1  UNL1        0.0312
      6 S         143.4104  140.4512  158.8155 S.2     1  UNL1       -0.0807
      7 C         142.4160  140.8721  159.8566 C.ar    1  UNL1        0.1033
      8 C         141.3804  140.1046  160.6237 C.ar    1  UNL1        0.2694
      9 O         141.2140  138.6319  160.3923 O.2     1  UNL1       -0.2663
     10 N         140.5112  140.8098  161.6223 N.ar    1  UNL1       -0.2802
     11 C         141.7631  142.9733  164.5638 C.3     1  UNL1        0.0311
     12 C         140.3511  143.3331  164.2074 C.ar    1  UNL1       -0.0189
     13 C         139.4819  144.0383  165.2060 C.ar    1  UNL1       -0.0042
     14 C         138.0700  144.3980  164.8496 C.ar    1  UNL1       -0.0003
     15 C         137.5272  144.0525  163.4946 C.ar    1  UNL1        0.0001
     16 C         138.3964  143.3473  162.4960 C.ar    1  UNL1        0.0027
     17 C         139.8083  142.9876  162.8524 C.ar    1  UNL1        0.0303
     18 C         145.2911  141.6997  157.3840 C.ar    1  UNL1        0.0061
     19 C         146.4322  142.6599  157.5452 C.ar    1  UNL1        0.0014
     20 C         147.5319  142.6958  156.5257 C.ar    1  UNL1        0.0114
     21 C         147.4906  141.7716  155.3450 C.ar    1  UNL1        0.0577
     22 CL        148.5903  141.8075  154.3255 Cl      1  UNL1       -0.0822
     23 C         146.3495  140.8114  155.1838 C.ar    1  UNL1        0.0114
     24 C         145.2498  140.7755  156.2033 C.ar    1  UNL1        0.0014
     25 C         139.4756  140.0422  162.3895 C.3     1  UNL1        0.1118
     26 C         139.5955  139.9025  163.8781 C.3     1  UNL1        0.0388
     27 C         138.3850  140.0732  164.7474 C.3     1  UNL1        0.0048
     28 C         138.5049  139.9335  166.2360 C.3     1  UNL1        0.0174
     29 C         139.8354  139.6231  166.8554 C.3     1  UNL1        0.0720
     30 N         141.0459  139.4524  165.9862 N.3     1  UNL1       -0.2739
     31 C         140.9259  139.5922  164.4975 C.3     1  UNL1        0.0739
     32 C         142.3763  139.1421  166.6057 C.3     1  UNL1        0.0576
     33 C         143.4122  138.3926  165.8215 C.3     1  UNL1        0.0173
     34 C         142.6707  139.5813  168.0095 C.3     1  UNL1        0.0173
@<TRIPOS>BOND
     1    11    12    1
     2    12    13   ar
     3    13    14   ar
     4    14    15   ar
     5    15    16   ar
     6    16    17   ar
     7    17     1    1
     8     1     2   ar
     9     2     3   ar
    10     3     4   ar
    11     4     5   ar
    12     5    18    1
    13    18    19   ar
    14    19    20   ar
    15    20    21   ar
    16    21    22    1
    17    21    23   ar
    18    23    24   ar
    19     5     6   ar
    20     6     7   ar
    21     7     8   ar
    22     8     9    2
    23     8    10   ar
    24    10    25    1
    25    25    26    1
    26    26    27    1
    27    27    28    1
    28    28    29    1
    29    29    30    1
    30    30    32    1
    31    32    33    1
    32    32    34    1
    33    30    31    1
    34    17    12   ar
    35    10     1   ar
    36    31    26    1
    37     7     3   ar
    38    24    18   ar
@<TRIPOS>MOLECULE
*****
 34 38 0 0 0
SMALL
GASTEIGER

@<TRIPOS>ATOM
      1 C         141.3738  142.1927  162.3583 C.ar    1  UNL1        0.1457
      2 N         141.8276  141.5458  161.0832 N.ar    1  UNL1       -0.2275
      3 C         140.8208  140.9459  160.1470 C.ar    1  UNL1        0.0940
      4 C         140.9685  140.2468  158.8281 C.ar    1  UNL1        0.0263
      5 C         139.5993  139.8617  158.3518 C.ar    1  UNL1        0.0312
      6 S         138.6054  140.3227  159.3763 S.2     1  UNL1       -0.0807
      7 C         139.3604  140.9928  160.4858 C.ar    1  UNL1        0.1033
      8 C         138.9066  141.6396  161.7608 C.ar    1  UNL1        0.2694
      9 O         137.4461  141.6865  162.0997 O.2     1  UNL1       -0.2663
     10 N         139.9134  142.2395  162.6971 N.ar    1  UNL1       -0.2802
     11 C         142.7419  140.4674  164.3958 C.3     1  UNL1        0.0311
     12 C         143.0647  141.9300  164.3133 C.ar    1  UNL1       -0.0189
     13 C         144.0714  142.5299  165.2496 C.ar    1  UNL1       -0.0042
     14 C         144.3941  143.9925  165.1670 C.ar    1  UNL1       -0.0003
     15 C         143.7100  144.8551  164.1483 C.ar    1  UNL1        0.0001
     16 C         142.7033  144.2552  163.2121 C.ar    1  UNL1        0.0027
     17 C         142.3806  142.7926  163.2946 C.ar    1  UNL1        0.0303
     18 C         139.2800  139.1419  157.0751 C.ar    1  UNL1        0.0061
     19 C         138.5455  139.8523  155.9771 C.ar    1  UNL1        0.0014
     20 C         138.2262  139.1324  154.7004 C.ar    1  UNL1        0.0114
     21 C         138.6415  137.7022  154.5217 C.ar    1  UNL1        0.0577
     22 CL        138.3222  136.9824  153.2450 Cl      1  UNL1       -0.0822
     23 C         139.3760  136.9917  155.6198 C.ar    1  UNL1        0.0114
     24 C         139.6952  137.7116  156.8965 C.ar    1  UNL1        0.0014
     25 C         139.4596  142.8864  163.9722 C.3     1  UNL1        0.1118
     26 C         139.6070  142.1593  165.2758 C.3     1  UNL1        0.0388
     27 C         139.0308  140.7837  165.4367 C.3     1  UNL1        0.0048
     28 C         139.1782  140.0567  166.7404 C.3     1  UNL1        0.0174
     29 C         139.9018  140.7052  167.8832 C.3     1  UNL1        0.0720
     30 N         140.4780  142.0807  167.7223 N.3     1  UNL1       -0.2739
     31 C         140.3305  142.8078  166.4186 C.3     1  UNL1        0.0739
     32 C         141.2016  142.7291  168.8651 C.3     1  UNL1        0.0576
     33 C         140.4493  143.5862  169.8395 C.3     1  UNL1        0.0173
     34 C         142.6775  142.5205  169.0334 C.3     1  UNL1        0.0173
@<TRIPOS>BOND
     1    11    12    1
     2    12    13   ar
     3    13    14   ar
     4    14    15   ar
     5    15    16   ar
     6    16    17   ar
     7    17     1    1
     8     1     2   ar
     9     2     3   ar
    10     3     4   ar
    11     4     5   ar
    12     5    18    1
    13    18    19   ar
    14    19    20   ar
    15    20    21   ar
    16    21    22    1
    17    21    23   ar
    18    23    24   ar
    19     5     6   ar
    20     6     7   ar
    21     7     8   ar
    22     8     9    2
    23     8    10   ar
    24    10    25    1
    25    25    26    1
    26    26    27    1
    27    27    28    1
    28    28    29    1
    29    29    30    1
    30    30    32    1
    31    32    33    1
    32    32    34    1
    33    30    31    1
    34    17    12   ar
    35    10     1   ar
    36    31    26    1
    37     7     3   ar
    38    24    18   ar
@<TRIPOS>MOLECULE
*****
 34 38 0 0 0
SMALL
GASTEIGER

@<TRIPOS>ATOM
      1 C         142.2274  141.5311  161.6374 C.ar    1  UNL1        0.1457
      2 N         143.0511  140.7448  160.6610 N.ar    1  UNL1       -0.2275
      3 C         142.3812  139.8194  159.6890 C.ar    1  UNL1        0.0940
      4 C         142.9273  138.9226  158.6178 C.ar    1  UNL1        0.0263
      5 C         141.7712  138.2291  157.9601 C.ar    1  UNL1        0.0312
      6 S         140.5107  138.6974  158.6248 S.2     1  UNL1       -0.0807
      7 C         140.8877  139.6802  159.6934 C.ar    1  UNL1        0.1033
      8 C         140.0641  140.4665  160.6698 C.ar    1  UNL1        0.2694
      9 O         138.5705  140.3273  160.6741 O.2     1  UNL1       -0.2663
     10 N         140.7339  141.3919  161.6418 N.ar    1  UNL1       -0.2802
     11 C         143.3472  140.4556  164.2043 C.3     1  UNL1        0.0311
     12 C         143.4572  141.9188  163.8930 C.ar    1  UNL1       -0.0189
     13 C         144.1270  142.8442  164.8650 C.ar    1  UNL1       -0.0042
     14 C         144.2369  144.3074  164.5536 C.ar    1  UNL1       -0.0003
     15 C         143.6770  144.8452  163.2701 C.ar    1  UNL1        0.0001
     16 C         143.0072  143.9198  162.2981 C.ar    1  UNL1        0.0027
     17 C         142.8972  142.4566  162.6095 C.ar    1  UNL1        0.0303
     18 C         141.8600  137.2409  156.8351 C.ar    1  UNL1        0.0061
     19 C         140.6623  136.9786  155.9709 C.ar    1  UNL1        0.0014
     20 C         140.7512  135.9903  154.8460 C.ar    1  UNL1        0.0114
     21 C         142.0376  135.2643  154.5852 C.ar    1  UNL1        0.0577
     22 CL        142.1264  134.2761  153.4603 Cl      1  UNL1       -0.0822
     23 C         143.2353  135.5266  155.4494 C.ar    1  UNL1        0.0114
     24 C         143.1464  136.5149  156.5744 C.ar    1  UNL1        0.0014
     25 C         139.9102  142.1782  162.6182 C.3     1  UNL1        0.1118
     26 C         139.7888  141.7161  164.0400 C.3     1  UNL1        0.0388
     27 C         140.2692  142.5939  165.1576 C.3     1  UNL1        0.0048
     28 C         140.1478  142.1319  166.5794 C.3     1  UNL1        0.0174
     29 C         139.5459  140.7920  166.8838 C.3     1  UNL1        0.0720
     30 N         139.0655  139.9142  165.7664 N.3     1  UNL1       -0.2739
     31 C         139.1869  140.3763  164.3445 C.3     1  UNL1        0.0739
     32 C         138.4637  138.5744  166.0709 C.3     1  UNL1        0.0576
     33 C         137.5046  138.4254  167.2144 C.3     1  UNL1        0.0173
     34 C         138.8211  137.3836  165.2317 C.3     1  UNL1        0.0173
@<TRIPOS>BOND
     1    11    12    1
     2    12    13   ar
     3    13    14   ar
     4    14    15   ar
     5    15    16   ar
     6    16    17   ar
     7    17     1    1
     8     1     2   ar
     9     2     3   ar
    10     3     4   ar
    11     4     5   ar
    12     5    18    1
    13    18    19   ar
    14    19    20   ar
    15    20    21   ar
    16    21    22    1
    17    21    23   ar
    18    23    24   ar
    19     5     6   ar
    20     6     7   ar
    21     7     8   ar
    22     8     9    2
    23     8    10   ar
    24    10    25    1
    25    25    26    1
    26    26    27    1
    27    27    28    1
    28    28    29    1
    29    29    30    1
    30    30    32    1
    31    32    33    1
    32    32    34    1
    33    30    31    1
    34    17    12   ar
    35    10     1   ar
    36    31    26    1
    37     7     3   ar
    38    24    18   ar
@<TRIPOS>MOLECULE
*****
 34 38 0 0 0
SMALL
GASTEIGER

@<TRIPOS>ATOM
      1 C         140.9882  142.2743  162.0188 C.ar    1  UNL1        0.1457
      2 N         141.7366  143.0331  160.9632 N.ar    1  UNL1       -0.2275
      3 C         142.6742  142.3098  160.0425 C.ar    1  UNL1        0.0940
      4 C         143.5415  142.7873  158.9156 C.ar    1  UNL1        0.0263
      5 C         144.2668  141.6004  158.3540 C.ar    1  UNL1        0.0312
      6 S         143.8477  140.3895  159.1338 S.2     1  UNL1       -0.0807
      7 C         142.8635  140.8279  160.1774 C.ar    1  UNL1        0.1033
      8 C         142.1151  140.0693  161.2330 C.ar    1  UNL1        0.2694
      9 O         142.3043  138.5874  161.3679 O.2     1  UNL1       -0.2663
     10 N         141.1774  140.7925  162.1537 N.ar    1  UNL1       -0.2802
     11 C         142.0436  143.6066  164.4909 C.3     1  UNL1        0.0311
     12 C         140.5782  143.6637  164.1756 C.ar    1  UNL1       -0.0189
     13 C         139.6406  144.3869  165.0964 C.ar    1  UNL1       -0.0042
     14 C         138.1752  144.4440  164.7811 C.ar    1  UNL1       -0.0003
     15 C         137.6474  143.7778  163.5451 C.ar    1  UNL1        0.0001
     16 C         138.5851  143.0546  162.6243 C.ar    1  UNL1        0.0027
     17 C         140.0505  142.9976  162.9396 C.ar    1  UNL1        0.0303
     18 C         145.2402  141.6209  157.2130 C.ar    1  UNL1        0.0061
     19 C         145.0258  140.7265  156.0281 C.ar    1  UNL1        0.0014
     20 C         145.9993  140.7470  154.8870 C.ar    1  UNL1        0.0114
     21 C         147.1872  141.6618  154.9309 C.ar    1  UNL1        0.0577
     22 CL        148.1606  141.6823  153.7898 Cl      1  UNL1       -0.0822
     23 C         147.4016  142.5563  156.1158 C.ar    1  UNL1        0.0114
     24 C         146.4281  142.5357  157.2568 C.ar    1  UNL1        0.0014
     25 C         140.4291  140.0337  163.2093 C.3     1  UNL1        0.1118
     26 C         141.0052  139.9005  164.5878 C.3     1  UNL1        0.0388
     27 C         142.2380  139.0750  164.8088 C.3     1  UNL1        0.0048
     28 C         142.8142  138.9417  166.1873 C.3     1  UNL1        0.0174
     29 C         142.1575  139.6340  167.3448 C.3     1  UNL1        0.0720
     30 N         140.9248  140.4594  167.1238 N.3     1  UNL1       -0.2739
     31 C         140.3486  140.5927  165.7452 C.3     1  UNL1        0.0739
     32 C         140.2682  141.1516  168.2813 C.3     1  UNL1        0.0576
     33 C         140.4579  142.6263  168.4790 C.3     1  UNL1        0.0173
     34 C         139.4218  140.3689  169.2411 C.3     1  UNL1        0.0173
@<TRIPOS>BOND
     1    11    12    1
     2    12    13   ar
     3    13    14   ar
     4    14    15   ar
     5    15    16   ar
     6    16    17   ar
     7    17     1    1
     8     1     2   ar
     9     2     3   ar
    10     3     4   ar
    11     4     5   ar
    12     5    18    1
    13    18    19   ar
    14    19    20   ar
    15    20    21   ar
    16    21    22    1
    17    21    23   ar
    18    23    24   ar
    19     5     6   ar
    20     6     7   ar
    21     7     8   ar
    22     8     9    2
    23     8    10   ar
    24    10    25    1
    25    25    26    1
    26    26    27    1
    27    27    28    1
    28    28    29    1
    29    29    30    1
    30    30    32    1
    31    32    33    1
    32    32    34    1
    33    30    31    1
    34    17    12   ar
    35    10     1   ar
    36    31    26    1
    37     7     3   ar
    38    24    18   ar
@<TRIPOS>MOLECULE
*****
 34 38 0 0 0
SMALL
GASTEIGER

@<TRIPOS>ATOM
      1 C         141.6708  140.4694  161.7711 C.ar    1  UNL1        0.1457
      2 N         142.3621  139.8015  160.6195 N.ar    1  UNL1       -0.2275
      3 C         143.2041  140.6112  159.6785 C.ar    1  UNL1        0.0940
      4 C         143.9994  140.2326  158.4644 C.ar    1  UNL1        0.0263
      5 C         144.6416  141.4760  157.9247 C.ar    1  UNL1        0.0312
      6 S         144.2432  142.6232  158.8052 S.2     1  UNL1       -0.0807
      7 C         143.3547  142.0887  159.8891 C.ar    1  UNL1        0.1033
      8 C         142.6634  142.7565  161.0407 C.ar    1  UNL1        0.2694
      9 O         142.8140  144.2340  161.2513 O.2     1  UNL1       -0.2663
     10 N         141.8214  141.9468  161.9817 N.ar    1  UNL1       -0.2802
     11 C         142.9525  139.0283  164.0690 C.3     1  UNL1        0.0311
     12 C         141.4697  138.9391  163.8611 C.ar    1  UNL1       -0.0189
     13 C         140.6277  138.1294  164.8021 C.ar    1  UNL1       -0.0042
     14 C         139.1448  138.0402  164.5941 C.ar    1  UNL1       -0.0003
     15 C         138.5040  138.7608  163.4452 C.ar    1  UNL1        0.0001
     16 C         139.3459  139.5705  162.5042 C.ar    1  UNL1        0.0027
     17 C         140.8288  139.6596  162.7122 C.ar    1  UNL1        0.0303
     18 C         145.5268  141.5580  156.7165 C.ar    1  UNL1        0.0061
     19 C         145.1848  140.7780  155.4818 C.ar    1  UNL1        0.0014
     20 C         146.0701  140.8600  154.2737 C.ar    1  UNL1        0.0114
     21 C         147.2974  141.7220  154.3002 C.ar    1  UNL1        0.0577
     22 CL        148.1826  141.8039  153.0921 Cl      1  UNL1       -0.0822
     23 C         147.6395  142.5020  155.5350 C.ar    1  UNL1        0.0114
     24 C         146.7541  142.4200  156.7431 C.ar    1  UNL1        0.0014
     25 C         141.1301  142.6147  163.1333 C.3     1  UNL1        0.1118
     26 C         141.6948  142.4963  164.5178 C.3     1  UNL1        0.0388
     27 C         143.1523  142.7573  164.7583 C.3     1  UNL1        0.0048
     28 C         143.7169  142.6389  166.1428 C.3     1  UNL1        0.0174
     29 C         142.8241  142.2597  167.2871 C.3     1  UNL1        0.0720
     30 N         141.3667  141.9987  167.0467 N.3     1  UNL1       -0.2739
     31 C         140.8021  142.1171  165.6620 C.3     1  UNL1        0.0739
     32 C         140.4740  141.6195  168.1909 C.3     1  UNL1        0.0576
     33 C         140.3611  142.5206  169.3847 C.3     1  UNL1        0.0173
     34 C         139.6942  140.3390  168.1412 C.3     1  UNL1        0.0173
@<TRIPOS>BOND
     1    11    12    1
     2    12    13   ar
     3    13    14   ar
     4    14    15   ar
     5    15    16   ar
     6    16    17   ar
     7    17     1    1
     8     1     2   ar
     9     2     3   ar
    10     3     4   ar
    11     4     5   ar
    12     5    18    1
    13    18    19   ar
    14    19    20   ar
    15    20    21   ar
    16    21    22    1
    17    21    23   ar
    18    23    24   ar
    19     5     6   ar
    20     6     7   ar
    21     7     8   ar
    22     8     9    2
    23     8    10   ar
    24    10    25    1
    25    25    26    1
    26    26    27    1
    27    27    28    1
    28    28    29    1
    29    29    30    1
    30    30    32    1
    31    32    33    1
    32    32    34    1
    33    30    31    1
    34    17    12   ar
    35    10     1   ar
    36    31    26    1
    37     7     3   ar
    38    24    18   ar
@<TRIPOS>MOLECULE
*****
 34 38 0 0 0
SMALL
GASTEIGER

@<TRIPOS>ATOM
      1 C         140.9689  141.6348  162.2319 C.ar    1  UNL1        0.1457
      2 N         140.2614  141.0283  161.0565 N.ar    1  UNL1       -0.2275
      3 C         140.9561  140.0030  160.2103 C.ar    1  UNL1        0.0940
      4 C         140.5157  139.2364  158.9985 C.ar    1  UNL1        0.0263
      5 C         141.6458  138.3438  158.5788 C.ar    1  UNL1        0.0312
      6 S         142.7846  138.5587  159.5312 S.2     1  UNL1       -0.0807
      7 C         142.3583  139.5842  160.5395 C.ar    1  UNL1        0.1033
      8 C         143.0658  140.1907  161.7149 C.ar    1  UNL1        0.2694
      9 O         144.4680  139.7719  162.0441 O.2     1  UNL1       -0.2663
     10 N         142.3711  141.2160  162.5611 N.ar    1  UNL1       -0.2802
     11 C         139.3289  140.7712  164.5908 C.3     1  UNL1        0.0311
     12 C         139.4542  142.2284  164.2576 C.ar    1  UNL1       -0.0189
     13 C         138.7595  143.2538  165.1038 C.ar    1  UNL1       -0.0042
     14 C         138.8848  144.7109  164.7705 C.ar    1  UNL1       -0.0003
     15 C         139.7048  145.1427  163.5911 C.ar    1  UNL1        0.0001
     16 C         140.3995  144.1173  162.7449 C.ar    1  UNL1        0.0027
     17 C         140.2742  142.6602  163.0782 C.ar    1  UNL1        0.0303
     18 C         141.6385  137.4016  157.4117 C.ar    1  UNL1        0.0061
     19 C         142.8226  136.5176  157.1539 C.ar    1  UNL1        0.0014
     20 C         142.8151  135.5755  155.9867 C.ar    1  UNL1        0.0114
     21 C         141.6236  135.5173  155.0773 C.ar    1  UNL1        0.0577
     22 CL        141.6163  134.5751  153.9101 Cl      1  UNL1       -0.0822
     23 C         140.4395  136.4012  155.3351 C.ar    1  UNL1        0.0114
     24 C         140.4470  137.3434  156.5023 C.ar    1  UNL1        0.0014
     25 C         143.0787  141.8225  163.7365 C.3     1  UNL1        0.1118
     26 C         142.9272  141.2138  165.0990 C.3     1  UNL1        0.0388
     27 C         143.0984  139.7349  165.2830 C.3     1  UNL1        0.0048
     28 C         142.9469  139.1262  166.6454 C.3     1  UNL1        0.0174
     29 C         142.6242  139.9962  167.8240 C.3     1  UNL1        0.0720
     30 N         142.4530  141.4750  167.6401 N.3     1  UNL1       -0.2739
     31 C         142.6045  142.0838  166.2775 C.3     1  UNL1        0.0739
     32 C         142.1303  142.3450  168.8186 C.3     1  UNL1        0.0576
     33 C         143.1537  142.5616  169.8935 C.3     1  UNL1        0.0173
     34 C         140.7840  142.9984  168.9222 C.3     1  UNL1        0.0173
@<TRIPOS>BOND
     1    11    12    1
     2    12    13   ar
     3    13    14   ar
     4    14    15   ar
     5    15    16   ar
     6    16    17   ar
     7    17     1    1
     8     1     2   ar
     9     2     3   ar
    10     3     4   ar
    11     4     5   ar
    12     5    18    1
    13    18    19   ar
    14    19    20   ar
    15    20    21   ar
    16    21    22    1
    17    21    23   ar
    18    23    24   ar
    19     5     6   ar
    20     6     7   ar
    21     7     8   ar
    22     8     9    2
    23     8    10   ar
    24    10    25    1
    25    25    26    1
    26    26    27    1
    27    27    28    1
    28    28    29    1
    29    29    30    1
    30    30    32    1
    31    32    33    1
    32    32    34    1
    33    30    31    1
    34    17    12   ar
    35    10     1   ar
    36    31    26    1
    37     7     3   ar
    38    24    18   ar
@<TRIPOS>MOLECULE
*****
 34 38 0 0 0
SMALL
GASTEIGER

@<TRIPOS>ATOM
      1 C         143.0284  139.8264  160.6157 C.ar    1  UNL1        0.1457
      2 N         143.4955  138.6810  159.7673 N.ar    1  UNL1       -0.2275
      3 C         142.6501  138.1999  158.6254 C.ar    1  UNL1        0.0940
      4 C         142.8480  137.1015  157.6232 C.ar    1  UNL1        0.0263
      5 C         141.6578  137.0871  156.7104 C.ar    1  UNL1        0.0312
      6 S         140.7243  138.1765  157.1484 S.2     1  UNL1       -0.0807
      7 C         141.3376  138.8643  158.3320 C.ar    1  UNL1        0.1033
      8 C         140.8706  140.0097  159.1804 C.ar    1  UNL1        0.2694
      9 O         139.5581  140.6741  158.8870 O.2     1  UNL1       -0.2663
     10 N         141.7160  140.4907  160.3223 N.ar    1  UNL1       -0.2802
     11 C         143.0716  138.2992  163.1975 C.3     1  UNL1        0.0311
     12 C         143.8954  139.5439  163.0486 C.ar    1  UNL1       -0.0189
     13 C         144.7408  140.0250  164.1904 C.ar    1  UNL1       -0.0042
     14 C         145.5646  141.2697  164.0414 C.ar    1  UNL1       -0.0003
     15 C         145.5430  142.0333  162.7505 C.ar    1  UNL1        0.0001
     16 C         144.6976  141.5522  161.6086 C.ar    1  UNL1        0.0027
     17 C         143.8738  140.3075  161.7577 C.ar    1  UNL1        0.0303
     18 C         141.4393  136.1480  155.5613 C.ar    1  UNL1        0.0061
     19 C         140.7147  136.6189  154.3352 C.ar    1  UNL1        0.0014
     20 C         140.4963  135.6797  153.1861 C.ar    1  UNL1        0.0114
     21 C         141.0025  134.2698  153.2631 C.ar    1  UNL1        0.0577
     22 CL        140.7840  133.3308  152.1140 Cl      1  UNL1       -0.0822
     23 C         141.7271  133.7990  154.4891 C.ar    1  UNL1        0.0114
     24 C         141.9455  134.7381  155.6382 C.ar    1  UNL1        0.0014
     25 C         141.2489  141.6362  161.1707 C.3     1  UNL1        0.1118
     26 C         140.9622  141.4226  162.6274 C.3     1  UNL1        0.0388
     27 C         141.5380  142.3568  163.6501 C.3     1  UNL1        0.0048
     28 C         141.2514  142.1431  165.1068 C.3     1  UNL1        0.0174
     29 C         140.3889  140.9951  165.5410 C.3     1  UNL1        0.0720
     30 N         139.8132  140.0609  164.5184 N.3     1  UNL1       -0.2739
     31 C         140.0999  140.2746  163.0616 C.3     1  UNL1        0.0739
     32 C         138.9508  138.9130  164.9526 C.3     1  UNL1        0.0576
     33 C         138.1308  139.0222  166.2038 C.3     1  UNL1        0.0173
     34 C         138.9085  137.6557  164.1355 C.3     1  UNL1        0.0173
@<TRIPOS>BOND
     1    11    12    1
     2    12    13   ar
     3    13    14   ar
     4    14    15   ar
     5    15    16   ar
     6    16    17   ar
     7    17     1    1
     8     1     2   ar
     9     2     3   ar
    10     3     4   ar
    11     4     5   ar
    12     5    18    1
    13    18    19   ar
    14    19    20   ar
    15    20    21   ar
    16    21    22    1
    17    21    23   ar
    18    23    24   ar
    19     5     6   ar
    20     6     7   ar
    21     7     8   ar
    22     8     9    2
    23     8    10   ar
    24    10    25    1
    25    25    26    1
    26    26    27    1
    27    27    28    1
    28    28    29    1
    29    29    30    1
    30    30    32    1
    31    32    33    1
    32    32    34    1
    33    30    31    1
    34    17    12   ar
    35    10     1   ar
    36    31    26    1
    37     7     3   ar
    38    24    18   ar
@<TRIPOS>MOLECULE
*****
 34 38 0 0 0
SMALL
GASTEIGER

@<TRIPOS>ATOM
      1 C         142.9738  139.7741  160.5550 C.ar    1  UNL1        0.1457
      2 N         143.4768  138.6376  159.7150 N.ar    1  UNL1       -0.2275
      3 C         142.6412  138.1132  158.5850 C.ar    1  UNL1        0.0940
      4 C         142.8721  137.0122  157.5929 C.ar    1  UNL1        0.0263
      5 C         141.6763  136.9436  156.6899 C.ar    1  UNL1        0.0312
      6 S         140.7064  138.0023  157.1239 S.2     1  UNL1       -0.0807
      7 C         141.3027  138.7252  158.2952 C.ar    1  UNL1        0.1033
      8 C         140.7998  139.8615  159.1353 C.ar    1  UNL1        0.2694
      9 O         139.4613  140.4735  158.8455 O.2     1  UNL1       -0.2663
     10 N         141.6354  140.3860  160.2652 N.ar    1  UNL1       -0.2802
     11 C         143.0455  138.3103  163.1727 C.3     1  UNL1        0.0311
     12 C         143.8453  139.5667  162.9939 C.ar    1  UNL1       -0.0189
     13 C         144.6809  140.0911  164.1238 C.ar    1  UNL1       -0.0042
     14 C         145.4807  141.3474  163.9448 C.ar    1  UNL1       -0.0003
     15 C         145.4449  142.0793  162.6360 C.ar    1  UNL1        0.0001
     16 C         144.6093  141.5549  161.5061 C.ar    1  UNL1        0.0027
     17 C         143.8095  140.2985  161.6850 C.ar    1  UNL1        0.0303
     18 C         141.4842  135.9847  155.5525 C.ar    1  UNL1        0.0061
     19 C         141.8589  134.5416  155.7168 C.ar    1  UNL1        0.0014
     20 C         141.6667  133.5828  154.5793 C.ar    1  UNL1        0.0114
     21 C         141.0999  134.0670  153.2777 C.ar    1  UNL1        0.0577
     22 CL        140.9078  133.1082  152.1403 Cl      1  UNL1       -0.0822
     23 C         140.7253  135.5102  153.1134 C.ar    1  UNL1        0.0114
     24 C         140.9175  136.4690  154.2509 C.ar    1  UNL1        0.0014
     25 C         141.1325  141.5224  161.1053 C.3     1  UNL1        0.1118
     26 C         139.9822  141.3094  162.0441 C.3     1  UNL1        0.0388
     27 C         138.7941  142.2237  161.9942 C.3     1  UNL1        0.0048
     28 C         137.6438  142.0106  162.9329 C.3     1  UNL1        0.0174
     29 C         137.6816  140.8832  163.9218 C.3     1  UNL1        0.0720
     30 N         138.8697  139.9689  163.9717 N.3     1  UNL1       -0.2739
     31 C         140.0200  140.1820  163.0329 C.3     1  UNL1        0.0739
     32 C         138.9075  138.8416  164.9605 C.3     1  UNL1        0.0576
     33 C         139.7525  137.6328  164.6878 C.3     1  UNL1        0.0173
     34 C         138.1000  138.9232  166.2221 C.3     1  UNL1        0.0173
@<TRIPOS>BOND
     1    11    12    1
     2    12    13   ar
     3    13    14   ar
     4    14    15   ar
     5    15    16   ar
     6    16    17   ar
     7    17     1    1
     8     1     2   ar
     9     2     3   ar
    10     3     4   ar
    11     4     5   ar
    12     5    18    1
    13    18    19   ar
    14    19    20   ar
    15    20    21   ar
    16    21    22    1
    17    21    23   ar
    18    23    24   ar
    19     5     6   ar
    20     6     7   ar
    21     7     8   ar
    22     8     9    2
    23     8    10   ar
    24    10    25    1
    25    25    26    1
    26    26    27    1
    27    27    28    1
    28    28    29    1
    29    29    30    1
    30    30    32    1
    31    32    33    1
    32    32    34    1
    33    30    31    1
    34    17    12   ar
    35    10     1   ar
    36    31    26    1
    37     7     3   ar
    38    24    18   ar
@<TRIPOS>MOLECULE
*****
 34 38 0 0 0
SMALL
GASTEIGER

@<TRIPOS>ATOM
      1 C         142.0926  141.6729  162.2790 C.ar    1  UNL1        0.1457
      2 N         142.8558  140.9731  161.1936 N.ar    1  UNL1       -0.2275
      3 C         142.1494  140.0214  160.2742 C.ar    1  UNL1        0.0940
      4 C         142.6347  139.1924  159.1221 C.ar    1  UNL1        0.0263
      5 C         141.4652  138.4282  158.5760 C.ar    1  UNL1        0.0312
      6 S         140.2572  138.7848  159.3905 S.2     1  UNL1       -0.0807
      7 C         140.6801  139.7695  160.4401 C.ar    1  UNL1        0.1033
      8 C         139.9170  140.4693  161.5255 C.ar    1  UNL1        0.2694
      9 O         138.4477  140.2173  161.6914 O.2     1  UNL1       -0.2663
     10 N         140.6233  141.4210  162.4449 N.ar    1  UNL1       -0.2802
     11 C         141.9802  144.6249  161.7569 C.3     1  UNL1        0.0311
     12 C         142.7427  144.1007  162.9374 C.ar    1  UNL1       -0.0189
     13 C         143.4490  145.0523  163.8569 C.ar    1  UNL1       -0.0042
     14 C         144.2115  144.5280  165.0374 C.ar    1  UNL1       -0.0003
     15 C         144.2678  143.0520  165.2985 C.ar    1  UNL1        0.0001
     16 C         143.5615  142.1003  164.3790 C.ar    1  UNL1        0.0027
     17 C         142.7989  142.6246  163.1985 C.ar    1  UNL1        0.0303
     18 C         141.4980  137.4747  157.4185 C.ar    1  UNL1        0.0061
     19 C         140.3098  137.3560  156.5107 C.ar    1  UNL1        0.0014
     20 C         140.3426  136.4025  155.3532 C.ar    1  UNL1        0.0114
     21 C         141.5636  135.5676  155.1035 C.ar    1  UNL1        0.0577
     22 CL        141.5963  134.6141  153.9460 Cl      1  UNL1       -0.0822
     23 C         142.7518  135.6863  156.0113 C.ar    1  UNL1        0.0114
     24 C         142.7189  136.6399  157.1688 C.ar    1  UNL1        0.0014
     25 C         139.8602  142.1207  163.5303 C.3     1  UNL1        0.1118
     26 C         139.8516  141.5609  164.9218 C.3     1  UNL1        0.0388
     27 C         139.1455  140.2682  165.2059 C.3     1  UNL1        0.0048
     28 C         139.1370  139.7084  166.5973 C.3     1  UNL1        0.0174
     29 C         139.8345  140.4411  167.7049 C.3     1  UNL1        0.0720
     30 N         140.5406  141.7336  167.4209 N.3     1  UNL1       -0.2739
     31 C         140.5491  142.2935  166.0293 C.3     1  UNL1        0.0739
     32 C         141.2381  142.4663  168.5285 C.3     1  UNL1        0.0576
     33 C         142.7193  142.3158  168.7109 C.3     1  UNL1        0.0173
     34 C         140.4543  143.3494  169.4536 C.3     1  UNL1        0.0173
@<TRIPOS>BOND
     1    11    12    1
     2    12    13   ar
     3    13    14   ar
     4    14    15   ar
     5    15    16   ar
     6    16    17   ar
     7    17     1    1
     8     1     2   ar
     9     2     3   ar
    10     3     4   ar
    11     4     5   ar
    12     5    18    1
    13    18    19   ar
    14    19    20   ar
    15    20    21   ar
    16    21    22    1
    17    21    23   ar
    18    23    24   ar
    19     5     6   ar
    20     6     7   ar
    21     7     8   ar
    22     8     9    2
    23     8    10   ar
    24    10    25    1
    25    25    26    1
    26    26    27    1
    27    27    28    1
    28    28    29    1
    29    29    30    1
    30    30    32    1
    31    32    33    1
    32    32    34    1
    33    30    31    1
    34    17    12   ar
    35    10     1   ar
    36    31    26    1
    37     7     3   ar
    38    24    18   ar
