@<TRIPOS>MOLECULE
*****
 35 38 0 0 0
SMALL
GASTEIGER

@<TRIPOS>ATOM
      1 C         142.3601  141.9409  162.0309 C.ar    1  UNL1        0.0930
      2 C         143.1894  141.6986  160.8047 C.ar    1  UNL1        0.1067
      3 N         144.2638  140.7137  161.1592 N.ar    1  UNL1       -0.2252
      4 C         144.0985  140.3473  162.6043 C.ar    1  UNL1        0.1586
      5 N         144.8673  139.4210  163.4992 N.ar    1  UNL1       -0.3349
      6 C         144.4595  139.2532  164.9329 C.ar    1  UNL1        0.0945
      7 C         143.2828  140.0117  165.4716 C.ar    1  UNL1        0.1176
      8 N         142.5140  140.9379  164.5767 N.ar    1  UNL1       -0.2390
      9 C         142.9219  141.1057  163.1431 C.ar    1  UNL1        0.1210
     10 H         145.6395  138.9232  163.1456 H       1  UNL1        0.1675
     11 C         142.8750  139.8438  166.9054 C.ar    1  UNL1        0.1213
     12 N         143.2710  138.7132  167.8081 N.ar    1  UNL1       -0.1677
     13 N         142.6404  138.9477  169.1487 N.ar    1  UNL1       -0.2507
     14 C         141.8547  140.2233  169.0746 C.ar    1  UNL1        0.0816
     15 C         141.0259  140.9522  170.0904 C.ar    1  UNL1        0.0484
     16 C         140.3422  142.2348  169.7199 C.ar    1  UNL1        0.1416
     17 F         139.5134  142.9636  170.7358 F       1  UNL1       -0.2041
     18 C         140.4873  142.7886  168.3334 C.ar    1  UNL1        0.0298
     19 C         141.3160  142.0598  167.3175 C.ar    1  UNL1        0.0054
     20 C         141.9997  140.7772  167.6882 C.ar    1  UNL1        0.0383
     21 C         142.7723  138.0621  170.3522 C.3     1  UNL1        0.1293
     22 C         144.1321  137.6693  170.8489 C.3     1  UNL1        0.0516
     23 C         144.4161  136.2405  171.2063 C.3     1  UNL1        0.1530
     24 S         145.5340  135.9117  172.1508 S.O2    1  UNL1       -0.0082
     25 C         146.6519  135.5828  173.0954 C.3     1  UNL1        0.1760
     26 O         146.2214  137.1933  171.7836 O.2     1  UNL1       -0.1729
     27 O         144.8467  134.6300  172.5181 O.2     1  UNL1       -0.1729
     28 N         140.0867  142.5728  163.1184 N.am    1  UNL1       -0.3039
     29 C         141.1766  142.8574  162.1278 C.2     1  UNL1        0.2488
     30 O         141.0830  144.0585  161.2344 O.2     1  UNL1       -0.2700
     31 H         140.1481  141.7844  163.7049 H       1  UNL1        0.1496
     32 C         138.2143  142.7143  162.1315 C.3     1  UNL1        0.0196
     33 C         138.9032  143.4893  163.2154 C.3     1  UNL1        0.0572
     34 C         139.5922  144.2643  164.2993 C.3     1  UNL1        0.0196
     35 C         137.7198  144.4058  163.3123 C.3     1  UNL1        0.0196
@<TRIPOS>BOND
     1    32    33    1
     2    33    34    1
     3    33    35    1
     4    33    28    1
     5    28    29   am
     6    29    30    2
     7    29     1    1
     8     1     2   ar
     9     2     3   ar
    10     3     4   ar
    11     4     5   ar
    12     5     6   ar
    13     6     7   ar
    14     7    11    1
    15    11    12   ar
    16    12    13   ar
    17    13    21    1
    18    21    22    1
    19    22    23    1
    20    23    24    1
    21    24    25    1
    22    24    26    2
    23    24    27    2
    24    13    14   ar
    25    14    15   ar
    26    15    16   ar
    27    16    17    1
    28    16    18   ar
    29    18    19   ar
    30    19    20   ar
    31     7     8   ar
    32     8     9   ar
    33     9     1   ar
    34     9     4    1
    35    20    11   ar
    36    20    14   ar
    37    28    31    1
    38     5    10    1
@<TRIPOS>MOLECULE
*****
 35 38 0 0 0
SMALL
GASTEIGER

@<TRIPOS>ATOM
      1 C         137.6183  142.8806  156.1026 C.ar    1  UNL1        0.0930
      2 C         136.8364  141.7719  155.4629 C.ar    1  UNL1        0.1067
      3 N         136.7621  140.6346  156.4381 N.ar    1  UNL1       -0.2252
      4 C         137.4981  141.0404  157.6805 C.ar    1  UNL1        0.1586
      5 N         137.7548  140.3254  158.9739 N.ar    1  UNL1       -0.3349
      6 C         138.5406  140.9984  160.0598 C.ar    1  UNL1        0.0945
      7 C         139.0698  142.3866  159.8525 C.ar    1  UNL1        0.1176
      8 N         138.8131  143.1017  158.5591 N.ar    1  UNL1       -0.2390
      9 C         138.0273  142.4286  157.4732 C.ar    1  UNL1        0.1210
     10 H         137.4075  139.4143  159.1100 H       1  UNL1        0.1675
     11 C         139.8557  143.0596  160.9385 C.ar    1  UNL1        0.1213
     12 N         141.3249  143.3607  160.9066 N.ar    1  UNL1       -0.1677
     13 N         141.6876  144.0369  162.1954 N.ar    1  UNL1       -0.2507
     14 C         140.4426  144.1538  163.0239 C.ar    1  UNL1        0.0816
     15 C         140.1936  144.7321  164.3853 C.ar    1  UNL1        0.0484
     16 C         138.8125  144.7066  164.9699 C.ar    1  UNL1        0.1416
     17 F         138.5635  145.2850  166.3314 F       1  UNL1       -0.2041
     18 C         137.6803  144.1026  164.1931 C.ar    1  UNL1        0.0298
     19 C         137.9293  143.5242  162.8317 C.ar    1  UNL1        0.0054
     20 C         139.3105  143.5498  162.2471 C.ar    1  UNL1        0.0383
     21 C         143.0552  144.5127  162.5870 C.3     1  UNL1        0.1293
     22 C         144.1868  143.5342  162.6967 C.3     1  UNL1        0.0516
     23 C         144.4773  142.8675  164.0086 C.3     1  UNL1        0.1530
     24 S         144.7757  141.3982  164.0534 S.O2    1  UNL1       -0.0082
     25 C         145.0742  139.9289  164.0981 C.3     1  UNL1        0.1760
     26 O         143.5335  141.1705  164.8627 O.2     1  UNL1       -0.1729
     27 O         146.0180  141.6259  163.2440 O.2     1  UNL1       -0.1729
     28 N         139.2568  144.8659  155.7498 N.am    1  UNL1       -0.3039
     29 C         137.9356  144.2083  155.4809 C.2     1  UNL1        0.2488
     30 O         136.9319  144.8786  154.5904 O.2     1  UNL1       -0.2700
     31 H         139.9157  144.4260  156.3343 H       1  UNL1        0.1496
     32 C         139.0123  146.8912  156.3314 C.3     1  UNL1        0.0196
     33 C         139.5741  146.1936  155.1281 C.3     1  UNL1        0.0572
     34 C         140.1359  145.4959  153.9249 C.3     1  UNL1        0.0196
     35 C         139.8914  147.5212  154.5065 C.3     1  UNL1        0.0196
@<TRIPOS>BOND
     1    32    33    1
     2    33    34    1
     3    33    35    1
     4    33    28    1
     5    28    29   am
     6    29    30    2
     7    29     1    1
     8     1     2   ar
     9     2     3   ar
    10     3     4   ar
    11     4     5   ar
    12     5     6   ar
    13     6     7   ar
    14     7    11    1
    15    11    12   ar
    16    12    13   ar
    17    13    21    1
    18    21    22    1
    19    22    23    1
    20    23    24    1
    21    24    25    1
    22    24    26    2
    23    24    27    2
    24    13    14   ar
    25    14    15   ar
    26    15    16   ar
    27    16    17    1
    28    16    18   ar
    29    18    19   ar
    30    19    20   ar
    31     7     8   ar
    32     8     9   ar
    33     9     1   ar
    34     9     4    1
    35    20    11   ar
    36    20    14   ar
    37    28    31    1
    38     5    10    1
@<TRIPOS>MOLECULE
*****
 35 38 0 0 0
SMALL
GASTEIGER

@<TRIPOS>ATOM
      1 C         141.3928  139.0184  157.8729 C.ar    1  UNL1        0.0930
      2 C         142.3036  138.0417  157.1900 C.ar    1  UNL1        0.1067
      3 N         143.0296  137.2664  158.2491 N.ar    1  UNL1       -0.2252
      4 C         142.5676  137.7640  159.5866 C.ar    1  UNL1        0.1586
      5 N         142.9374  137.3711  160.9862 N.ar    1  UNL1       -0.3349
      6 C         142.2955  138.0609  162.1532 C.ar    1  UNL1        0.0945
      7 C         141.2839  139.1438  161.9207 C.ar    1  UNL1        0.1176
      8 N         140.9141  139.5367  160.5212 N.ar    1  UNL1       -0.2390
      9 C         141.5560  138.8469  159.3541 C.ar    1  UNL1        0.1210
     10 H         143.6014  136.6604  161.1388 H       1  UNL1        0.1675
     11 C         140.6420  139.8336  163.0879 C.ar    1  UNL1        0.1213
     12 N         140.7470  141.2936  163.4158 N.ar    1  UNL1       -0.1677
     13 N         139.9524  141.5470  164.6626 N.ar    1  UNL1       -0.2507
     14 C         139.3563  140.2435  165.1051 C.ar    1  UNL1        0.0816
     15 C         138.4804  139.8841  166.2686 C.ar    1  UNL1        0.0484
     16 C         138.0308  138.4658  166.4588 C.ar    1  UNL1        0.1416
     17 F         137.1549  138.1063  167.6224 F       1  UNL1       -0.2041
     18 C         138.4570  137.4069  165.4856 C.ar    1  UNL1        0.0298
     19 C         139.3329  137.7663  164.3222 C.ar    1  UNL1        0.0054
     20 C         139.7825  139.1847  164.1319 C.ar    1  UNL1        0.0383
     21 C         139.7835  142.8712  165.3466 C.3     1  UNL1        0.1293
     22 C         139.0344  143.9774  164.6647 C.3     1  UNL1        0.0516
     23 C         137.8150  143.6655  163.8487 C.3     1  UNL1        0.1530
     24 S         137.9617  143.1595  162.4443 S.O2    1  UNL1       -0.0082
     25 C         138.1083  142.6532  161.0399 C.3     1  UNL1        0.1760
     26 O         138.7569  144.3802  162.0874 O.2     1  UNL1       -0.1729
     27 O         137.1665  141.9386  162.8012 O.2     1  UNL1       -0.1729
     28 N         139.6213  140.9138  158.0128 N.am    1  UNL1       -0.3039
     29 C         140.4792  139.9953  157.1939 C.2     1  UNL1        0.2488
     30 O         140.4234  140.0537  155.6962 O.2     1  UNL1       -0.2700
     31 H         139.6578  140.8755  158.9958 H       1  UNL1        0.1496
     32 C         139.8080  142.9100  157.3199 C.3     1  UNL1        0.0196
     33 C         138.7076  141.8907  157.3337 C.3     1  UNL1        0.0572
     34 C         137.6073  140.8713  157.3477 C.3     1  UNL1        0.0196
     35 C         137.7941  142.8675  156.6548 C.3     1  UNL1        0.0196
@<TRIPOS>BOND
     1    32    33    1
     2    33    34    1
     3    33    35    1
     4    33    28    1
     5    28    29   am
     6    29    30    2
     7    29     1    1
     8     1     2   ar
     9     2     3   ar
    10     3     4   ar
    11     4     5   ar
    12     5     6   ar
    13     6     7   ar
    14     7    11    1
    15    11    12   ar
    16    12    13   ar
    17    13    21    1
    18    21    22    1
    19    22    23    1
    20    23    24    1
    21    24    25    1
    22    24    26    2
    23    24    27    2
    24    13    14   ar
    25    14    15   ar
    26    15    16   ar
    27    16    17    1
    28    16    18   ar
    29    18    19   ar
    30    19    20   ar
    31     7     8   ar
    32     8     9   ar
    33     9     1   ar
    34     9     4    1
    35    20    11   ar
    36    20    14   ar
    37    28    31    1
    38     5    10    1
@<TRIPOS>MOLECULE
*****
 35 38 0 0 0
SMALL
GASTEIGER

@<TRIPOS>ATOM
      1 C         140.6642  143.5831  160.1936 C.ar    1  UNL1        0.0930
      2 C         140.3316  144.9298  159.6229 C.ar    1  UNL1        0.1067
      3 N         139.9135  145.8220  160.7539 N.ar    1  UNL1       -0.2252
      4 C         139.9878  145.0267  162.0236 C.ar    1  UNL1        0.1586
      5 N         139.6929  145.3838  163.4503 N.ar    1  UNL1       -0.3349
      6 C         139.8619  144.3571  164.5306 C.ar    1  UNL1        0.0945
      7 C         140.3258  142.9733  164.1843 C.ar    1  UNL1        0.1176
      8 N         140.6207  142.6162  162.7576 N.ar    1  UNL1       -0.2390
      9 C         140.4517  143.6430  161.6772 C.ar    1  UNL1        0.1210
     10 H         139.3884  146.2920  163.6776 H       1  UNL1        0.1675
     11 C         140.4949  141.9465  165.2648 C.ar    1  UNL1        0.1213
     12 N         139.5518  141.7038  166.4057 N.ar    1  UNL1       -0.1677
     13 N         140.1107  140.5896  167.2400 N.ar    1  UNL1       -0.2507
     14 C         141.3992  140.1437  166.6147 C.ar    1  UNL1        0.0816
     15 C         142.3870  139.0824  166.9992 C.ar    1  UNL1        0.0484
     16 C         143.6121  138.8597  166.1630 C.ar    1  UNL1        0.1416
     17 F         144.5999  137.7983  166.5476 F       1  UNL1       -0.2041
     18 C         143.8496  139.6983  164.9422 C.ar    1  UNL1        0.0298
     19 C         142.8618  140.7597  164.5577 C.ar    1  UNL1        0.0054
     20 C         141.6366  140.9823  165.3940 C.ar    1  UNL1        0.0383
     21 C         139.4900  140.0211  168.4816 C.3     1  UNL1        0.1293
     22 C         139.7536  140.6609  169.8124 C.3     1  UNL1        0.0516
     23 C         140.0810  142.1227  169.8900 C.3     1  UNL1        0.1530
     24 S         141.4760  142.5622  170.2230 S.O2    1  UNL1       -0.0082
     25 C         142.8710  143.0016  170.5560 C.3     1  UNL1        0.1760
     26 O         141.6984  142.9427  168.7892 O.2     1  UNL1       -0.1729
     27 O         141.2536  142.1816  171.6568 O.2     1  UNL1       -0.1729
     28 N         141.7260  141.2126  160.1341 N.am    1  UNL1       -0.3039
     29 C         141.1278  142.3865  159.4169 C.2     1  UNL1        0.2488
     30 O         140.9934  142.3637  157.9232 O.2     1  UNL1       -0.2700
     31 H         141.8143  141.2275  161.1145 H       1  UNL1        0.1496
     32 C         140.8253  139.4057  159.4834 C.3     1  UNL1        0.0196
     33 C         142.1897  140.0160  159.3574 C.3     1  UNL1        0.0572
     34 C         143.5541  140.6264  159.2315 C.3     1  UNL1        0.0196
     35 C         142.6533  138.8195  158.5808 C.3     1  UNL1        0.0196
@<TRIPOS>BOND
     1    32    33    1
     2    33    34    1
     3    33    35    1
     4    33    28    1
     5    28    29   am
     6    29    30    2
     7    29     1    1
     8     1     2   ar
     9     2     3   ar
    10     3     4   ar
    11     4     5   ar
    12     5     6   ar
    13     6     7   ar
    14     7    11    1
    15    11    12   ar
    16    12    13   ar
    17    13    21    1
    18    21    22    1
    19    22    23    1
    20    23    24    1
    21    24    25    1
    22    24    26    2
    23    24    27    2
    24    13    14   ar
    25    14    15   ar
    26    15    16   ar
    27    16    17    1
    28    16    18   ar
    29    18    19   ar
    30    19    20   ar
    31     7     8   ar
    32     8     9   ar
    33     9     1   ar
    34     9     4    1
    35    20    11   ar
    36    20    14   ar
    37    28    31    1
    38     5    10    1
@<TRIPOS>MOLECULE
*****
 35 38 0 0 0
SMALL
GASTEIGER

@<TRIPOS>ATOM
      1 C         138.9741  139.6487  167.9208 C.ar    1  UNL1        0.0930
      2 C         137.7521  138.8401  168.2412 C.ar    1  UNL1        0.1067
      3 N         137.3743  138.0650  167.0138 N.ar    1  UNL1       -0.2252
      4 C         138.3629  138.3945  165.9349 C.ar    1  UNL1        0.1586
      5 N         138.4904  137.9298  164.5144 N.ar    1  UNL1       -0.3349
      6 C         139.6067  138.4439  163.6546 C.ar    1  UNL1        0.0945
      7 C         140.5955  139.4228  164.2151 C.ar    1  UNL1        0.1176
      8 N         140.4679  139.8875  165.6356 N.ar    1  UNL1       -0.2390
      9 C         139.3516  139.3734  166.4954 C.ar    1  UNL1        0.1210
     10 H         137.8415  137.2874  164.1465 H       1  UNL1        0.1675
     11 C         141.7119  139.9369  163.3551 C.ar    1  UNL1        0.1213
     12 N         142.7590  140.9279  163.7691 N.ar    1  UNL1       -0.1677
     13 N         143.6714  141.1538  162.6001 N.ar    1  UNL1       -0.2507
     14 C         143.1881  140.3024  161.4636 C.ar    1  UNL1        0.0816
     15 C         143.6942  140.1147  160.0642 C.ar    1  UNL1        0.0484
     16 C         142.9894  139.1750  159.1314 C.ar    1  UNL1        0.1416
     17 F         143.4957  138.9874  157.7318 F       1  UNL1       -0.2041
     18 C         141.7783  138.4229  159.5980 C.ar    1  UNL1        0.0298
     19 C         141.2722  138.6106  160.9975 C.ar    1  UNL1        0.0054
     20 C         141.9770  139.5503  161.9303 C.ar    1  UNL1        0.0383
     21 C         144.8586  142.0702  162.5724 C.3     1  UNL1        0.1293
     22 C         144.7052  143.4818  162.0890 C.3     1  UNL1        0.0516
     23 C         143.9279  144.4731  162.9033 C.3     1  UNL1        0.1530
     24 S         142.4503  144.6225  162.6924 S.O2    1  UNL1       -0.0082
     25 C         140.9727  144.7719  162.4816 C.3     1  UNL1        0.1760
     26 O         142.6484  144.4917  161.2114 O.2     1  UNL1       -0.1729
     27 O         142.2522  144.7534  164.1736 O.2     1  UNL1       -0.1729
     28 N         140.8211  141.4225  168.3595 N.am    1  UNL1       -0.3039
     29 C         139.6926  140.5709  168.8608 C.2     1  UNL1        0.2488
     30 O         139.2826  140.6414  170.3019 O.2     1  UNL1       -0.2700
     31 H         141.0903  141.3762  167.4137 H       1  UNL1        0.1496
     32 C         140.4684  143.3767  169.1057 C.3     1  UNL1        0.0196
     33 C         141.5396  142.3447  169.2995 C.3     1  UNL1        0.0572
     34 C         142.6108  141.3126  169.4932 C.3     1  UNL1        0.0196
     35 C         142.2580  143.2668  170.2394 C.3     1  UNL1        0.0196
@<TRIPOS>BOND
     1    32    33    1
     2    33    34    1
     3    33    35    1
     4    33    28    1
     5    28    29   am
     6    29    30    2
     7    29     1    1
     8     1     2   ar
     9     2     3   ar
    10     3     4   ar
    11     4     5   ar
    12     5     6   ar
    13     6     7   ar
    14     7    11    1
    15    11    12   ar
    16    12    13   ar
    17    13    21    1
    18    21    22    1
    19    22    23    1
    20    23    24    1
    21    24    25    1
    22    24    26    2
    23    24    27    2
    24    13    14   ar
    25    14    15   ar
    26    15    16   ar
    27    16    17    1
    28    16    18   ar
    29    18    19   ar
    30    19    20   ar
    31     7     8   ar
    32     8     9   ar
    33     9     1   ar
    34     9     4    1
    35    20    11   ar
    36    20    14   ar
    37    28    31    1
    38     5    10    1
@<TRIPOS>MOLECULE
*****
 35 38 0 0 0
SMALL
GASTEIGER

@<TRIPOS>ATOM
      1 C         142.8834  141.6892  157.7612 C.ar    1  UNL1        0.0930
      2 C         143.9107  140.9242  156.9805 C.ar    1  UNL1        0.1067
      3 N         144.4668  139.8531  157.8712 N.ar    1  UNL1       -0.2252
      4 C         143.7832  139.9560  159.2024 C.ar    1  UNL1        0.1586
      5 N         143.9254  139.1631  160.4677 N.ar    1  UNL1       -0.3349
      6 C         143.0890  139.5049  161.6650 C.ar    1  UNL1        0.0945
      7 C         142.1104  140.6397  161.5970 C.ar    1  UNL1        0.1176
      8 N         141.9682  141.4327  160.3317 N.ar    1  UNL1       -0.2390
      9 C         142.8046  141.0908  159.1344 C.ar    1  UNL1        0.1210
     10 H         144.5677  138.4183  160.5123 H       1  UNL1        0.1675
     11 C         141.2740  140.9815  162.7944 C.ar    1  UNL1        0.1213
     12 N         141.1340  142.3408  163.4131 N.ar    1  UNL1       -0.1677
     13 N         140.2042  142.2235  164.5843 N.ar    1  UNL1       -0.2507
     14 C         139.7697  140.7917  164.6895 C.ar    1  UNL1        0.0816
     15 C         138.8573  140.0876  165.6497 C.ar    1  UNL1        0.0484
     16 C         138.6062  138.6161  165.5036 C.ar    1  UNL1        0.1416
     17 F         137.6938  137.9120  166.4639 F       1  UNL1       -0.2041
     18 C         139.2673  137.8485  164.3974 C.ar    1  UNL1        0.0298
     19 C         140.1796  138.5525  163.4372 C.ar    1  UNL1        0.0054
     20 C         140.4308  140.0241  163.5833 C.ar    1  UNL1        0.0383
     21 C         139.7830  143.3417  165.4911 C.3     1  UNL1        0.1293
     22 C         138.8399  144.3964  164.9931 C.3     1  UNL1        0.0516
     23 C         137.6569  144.0097  164.1558 C.3     1  UNL1        0.1530
     24 S         137.8618  143.4773  162.7685 S.O2    1  UNL1       -0.0082
     25 C         138.0668  142.9450  161.3812 C.3     1  UNL1        0.1760
     26 O         137.1140  142.2302  163.1366 O.2     1  UNL1       -0.1729
     27 O         138.6097  144.7244  162.4004 O.2     1  UNL1       -0.1729
     28 N         141.6882  143.9554  158.1927 N.am    1  UNL1       -0.3039
     29 C         142.0766  142.8489  157.2572 C.2     1  UNL1        0.2488
     30 O         141.6581  142.9023  155.8179 O.2     1  UNL1       -0.2700
     31 H         141.9629  143.9204  159.1375 H       1  UNL1        0.1496
     32 C         142.1446  145.8823  157.4321 C.3     1  UNL1        0.0196
     33 C         140.8814  145.1151  157.6887 C.3     1  UNL1        0.0572
     34 C         139.6183  144.3479  157.9454 C.3     1  UNL1        0.0196
     35 C         140.0746  146.2748  157.1848 C.3     1  UNL1        0.0196
@<TRIPOS>BOND
     1    32    33    1
     2    33    34    1
     3    33    35    1
     4    33    28    1
     5    28    29   am
     6    29    30    2
     7    29     1    1
     8     1     2   ar
     9     2     3   ar
    10     3     4   ar
    11     4     5   ar
    12     5     6   ar
    13     6     7   ar
    14     7    11    1
    15    11    12   ar
    16    12    13   ar
    17    13    21    1
    18    21    22    1
    19    22    23    1
    20    23    24    1
    21    24    25    1
    22    24    26    2
    23    24    27    2
    24    13    14   ar
    25    14    15   ar
    26    15    16   ar
    27    16    17    1
    28    16    18   ar
    29    18    19   ar
    30    19    20   ar
    31     7     8   ar
    32     8     9   ar
    33     9     1   ar
    34     9     4    1
    35    20    11   ar
    36    20    14   ar
    37    28    31    1
    38     5    10    1
@<TRIPOS>MOLECULE
*****
 35 38 0 0 0
SMALL
GASTEIGER

@<TRIPOS>ATOM
      1 C         142.0706  140.1277  158.6224 C.ar    1  UNL1        0.0930
      2 C         142.6444  139.1091  157.6826 C.ar    1  UNL1        0.1067
      3 N         143.0809  137.9248  158.4930 N.ar    1  UNL1       -0.2252
      4 C         142.7769  138.2113  159.9336 C.ar    1  UNL1        0.1586
      5 N         142.9879  137.4085  161.1829 N.ar    1  UNL1       -0.3349
      6 C         142.5746  137.9671  162.5122 C.ar    1  UNL1        0.0945
      7 C         141.9502  139.3286  162.5922 C.ar    1  UNL1        0.1176
      8 N         141.7391  140.1315  161.3429 N.ar    1  UNL1       -0.2390
      9 C         142.1525  139.5729  160.0136 C.ar    1  UNL1        0.1210
     10 H         143.3977  136.5148  161.1304 H       1  UNL1        0.1675
     11 C         141.5368  139.8872  163.9215 C.ar    1  UNL1        0.1213
     12 N         142.1829  141.0386  164.6335 N.ar    1  UNL1       -0.1677
     13 N         141.4503  141.2555  165.9243 N.ar    1  UNL1       -0.2507
     14 C         140.3512  140.2382  166.0100 C.ar    1  UNL1        0.0816
     15 C         139.3087  139.9726  167.0553 C.ar    1  UNL1        0.0484
     16 C         138.3197  138.8614  166.8628 C.ar    1  UNL1        0.1416
     17 F         137.2772  138.5958  167.9082 F       1  UNL1       -0.2041
     18 C         138.3732  138.0157  165.6250 C.ar    1  UNL1        0.0298
     19 C         139.4157  138.2813  164.5798 C.ar    1  UNL1        0.0054
     20 C         140.4048  139.3925  164.7723 C.ar    1  UNL1        0.0383
     21 C         141.7618  142.3054  166.9493 C.3     1  UNL1        0.1293
     22 C         143.0278  142.2201  167.7493 C.3     1  UNL1        0.0516
     23 C         143.0243  141.5454  169.0890 C.3     1  UNL1        0.1530
     24 S         141.8946  141.7848  170.0464 S.O2    1  UNL1       -0.0082
     25 C         140.7648  142.0241  171.0037 C.3     1  UNL1        0.1760
     26 O         142.3551  143.1997  170.2360 O.2     1  UNL1       -0.1729
     27 O         141.4341  140.3699  169.8566 O.2     1  UNL1       -0.1729
     28 N         141.5843  142.6131  159.2027 N.am    1  UNL1       -0.3039
     29 C         141.5128  141.4662  158.2384 C.2     1  UNL1        0.2488
     30 O         140.8837  141.6578  156.8904 O.2     1  UNL1       -0.2700
     31 H         141.9972  142.4873  160.0875 H       1  UNL1        0.1496
     32 C         139.7144  143.5847  159.4464 C.3     1  UNL1        0.0196
     33 C         141.0265  143.9516  158.8187 C.3     1  UNL1        0.0572
     34 C         142.3386  144.3183  158.1911 C.3     1  UNL1        0.0196
     35 C         140.4688  145.2899  158.4348 C.3     1  UNL1        0.0196
@<TRIPOS>BOND
     1    32    33    1
     2    33    34    1
     3    33    35    1
     4    33    28    1
     5    28    29   am
     6    29    30    2
     7    29     1    1
     8     1     2   ar
     9     2     3   ar
    10     3     4   ar
    11     4     5   ar
    12     5     6   ar
    13     6     7   ar
    14     7    11    1
    15    11    12   ar
    16    12    13   ar
    17    13    21    1
    18    21    22    1
    19    22    23    1
    20    23    24    1
    21    24    25    1
    22    24    26    2
    23    24    27    2
    24    13    14   ar
    25    14    15   ar
    26    15    16   ar
    27    16    17    1
    28    16    18   ar
    29    18    19   ar
    30    19    20   ar
    31     7     8   ar
    32     8     9   ar
    33     9     1   ar
    34     9     4    1
    35    20    11   ar
    36    20    14   ar
    37    28    31    1
    38     5    10    1
@<TRIPOS>MOLECULE
*****
 35 38 0 0 0
SMALL
GASTEIGER

@<TRIPOS>ATOM
      1 C         140.3656  143.3715  160.3506 C.ar    1  UNL1        0.0930
      2 C         140.9326  144.3551  159.3703 C.ar    1  UNL1        0.1067
      3 N         142.0767  145.0632  160.0334 N.ar    1  UNL1       -0.2252
      4 C         142.2168  144.5172  161.4234 C.ar    1  UNL1        0.1586
      5 N         143.1707  144.8370  162.5360 N.ar    1  UNL1       -0.3349
      6 C         143.0670  144.1113  163.8446 C.ar    1  UNL1        0.0945
      7 C         142.0095  143.0657  164.0407 C.ar    1  UNL1        0.1176
      8 N         141.0556  142.7460  162.9281 N.ar    1  UNL1       -0.2390
      9 C         141.1592  143.4717  161.6195 C.ar    1  UNL1        0.1210
     10 H         143.8648  145.5232  162.4073 H       1  UNL1        0.1675
     11 C         141.9058  142.3400  165.3494 C.ar    1  UNL1        0.1213
     12 N         142.9115  142.3797  166.4616 N.ar    1  UNL1       -0.1677
     13 N         142.4056  141.5114  167.5752 N.ar    1  UNL1       -0.2507
     14 C         141.0872  140.9351  167.1512 C.ar    1  UNL1        0.0816
     15 C         140.1280  140.0102  167.8400 C.ar    1  UNL1        0.0484
     16 C         138.8600  139.5974  167.1533 C.ar    1  UNL1        0.1416
     17 F         137.9008  138.6724  167.8422 F       1  UNL1       -0.2041
     18 C         138.5511  140.1095  165.7776 C.ar    1  UNL1        0.0298
     19 C         139.5103  141.0344  165.0888 C.ar    1  UNL1        0.0054
     20 C         140.7783  141.4472  165.7756 C.ar    1  UNL1        0.0383
     21 C         143.0967  141.2630  168.8831 C.3     1  UNL1        0.1293
     22 C         143.5756  142.4195  169.7098 C.3     1  UNL1        0.0516
     23 C         142.5928  143.2419  170.4894 C.3     1  UNL1        0.1530
     24 S         141.1556  142.8193  170.5664 S.O2    1  UNL1       -0.0082
     25 C         139.7184  142.3969  170.6433 C.3     1  UNL1        0.1760
     26 O         141.4751  141.9469  171.7440 O.2     1  UNL1       -0.1729
     27 O         140.8361  143.6918  169.3888 O.2     1  UNL1       -0.1729
     28 N         139.1461  141.1219  160.8006 N.am    1  UNL1       -0.3039
     29 C         139.2081  142.4496  160.1052 C.2     1  UNL1        0.2488
     30 O         138.1125  142.8552  159.1644 O.2     1  UNL1       -0.2700
     31 H         139.8651  140.8556  161.4181 H       1  UNL1        0.1496
     32 C         138.5904  139.7941  159.2424 C.3     1  UNL1        0.0196
     33 C         137.9886  140.2000  160.5552 C.3     1  UNL1        0.0572
     34 C         137.3869  140.6059  161.8679 C.3     1  UNL1        0.0196
     35 C         136.8312  139.2781  160.3097 C.3     1  UNL1        0.0196
@<TRIPOS>BOND
     1    32    33    1
     2    33    34    1
     3    33    35    1
     4    33    28    1
     5    28    29   am
     6    29    30    2
     7    29     1    1
     8     1     2   ar
     9     2     3   ar
    10     3     4   ar
    11     4     5   ar
    12     5     6   ar
    13     6     7   ar
    14     7    11    1
    15    11    12   ar
    16    12    13   ar
    17    13    21    1
    18    21    22    1
    19    22    23    1
    20    23    24    1
    21    24    25    1
    22    24    26    2
    23    24    27    2
    24    13    14   ar
    25    14    15   ar
    26    15    16   ar
    27    16    17    1
    28    16    18   ar
    29    18    19   ar
    30    19    20   ar
    31     7     8   ar
    32     8     9   ar
    33     9     1   ar
    34     9     4    1
    35    20    11   ar
    36    20    14   ar
    37    28    31    1
    38     5    10    1
@<TRIPOS>MOLECULE
*****
 35 38 0 0 0
SMALL
GASTEIGER

@<TRIPOS>ATOM
      1 C         142.1845  137.2711  155.7637 C.ar    1  UNL1        0.0930
      2 C         141.5615  137.8769  154.5410 C.ar    1  UNL1        0.1067
      3 N         140.7683  139.0753  154.9703 N.ar    1  UNL1       -0.2252
      4 C         140.9010  139.2103  156.4583 C.ar    1  UNL1        0.1586
      5 N         140.3379  140.2045  157.4301 N.ar    1  UNL1       -0.3349
      6 C         140.6501  140.0837  158.8923 C.ar    1  UNL1        0.0945
      7 C         141.5254  138.9686  159.3826 C.ar    1  UNL1        0.1176
      8 N         142.0885  137.9744  158.4108 N.ar    1  UNL1       -0.2390
      9 C         141.7763  138.0952  156.9487 C.ar    1  UNL1        0.1210
     10 H         139.7634  140.9364  157.1083 H       1  UNL1        0.1675
     11 C         141.8376  138.8477  160.8448 C.ar    1  UNL1        0.1213
     12 N         143.1601  139.1368  161.4908 N.ar    1  UNL1       -0.1677
     13 N         143.0220  138.8843  162.9629 N.ar    1  UNL1       -0.2507
     14 C         141.6140  138.4392  163.2268 C.ar    1  UNL1        0.0816
     15 C         140.9039  138.0515  164.4899 C.ar    1  UNL1        0.0484
     16 C         139.4620  137.6412  164.4439 C.ar    1  UNL1        0.1416
     17 F         138.7518  137.2535  165.7071 F       1  UNL1       -0.2041
     18 C         138.7299  137.6185  163.1348 C.ar    1  UNL1        0.0298
     19 C         139.4400  138.0062  161.8717 C.ar    1  UNL1        0.0054
     20 C         140.8820  138.4165  161.9177 C.ar    1  UNL1        0.0383
     21 C         144.1021  139.0483  163.9908 C.3     1  UNL1        0.1293
     22 C         144.6332  140.4144  164.3093 C.3     1  UNL1        0.0516
     23 C         145.3178  141.2199  163.2451 C.3     1  UNL1        0.1530
     24 S         144.7980  142.5794  162.8826 S.O2    1  UNL1       -0.0082
     25 C         144.2782  143.9390  162.5200 C.3     1  UNL1        0.1760
     26 O         144.5506  142.8716  164.3329 O.2     1  UNL1       -0.1729
     27 O         145.0454  142.2873  161.4322 O.2     1  UNL1       -0.1729
     28 N         142.5052  134.7407  156.2580 N.am    1  UNL1       -0.3039
     29 C         143.0617  136.0548  155.7958 C.2     1  UNL1        0.2488
     30 O         144.4953  136.1524  155.3657 O.2     1  UNL1       -0.2700
     31 H         141.5642  134.6766  156.5403 H       1  UNL1        0.1496
     32 C         143.7618  133.8355  157.7077 C.3     1  UNL1        0.0196
     33 C         143.3824  133.5243  156.2902 C.3     1  UNL1        0.0572
     34 C         143.0030  133.2133  154.8727 C.3     1  UNL1        0.0196
     35 C         144.2596  132.3081  156.3223 C.3     1  UNL1        0.0196
@<TRIPOS>BOND
     1    32    33    1
     2    33    34    1
     3    33    35    1
     4    33    28    1
     5    28    29   am
     6    29    30    2
     7    29     1    1
     8     1     2   ar
     9     2     3   ar
    10     3     4   ar
    11     4     5   ar
    12     5     6   ar
    13     6     7   ar
    14     7    11    1
    15    11    12   ar
    16    12    13   ar
    17    13    21    1
    18    21    22    1
    19    22    23    1
    20    23    24    1
    21    24    25    1
    22    24    26    2
    23    24    27    2
    24    13    14   ar
    25    14    15   ar
    26    15    16   ar
    27    16    17    1
    28    16    18   ar
    29    18    19   ar
    30    19    20   ar
    31     7     8   ar
    32     8     9   ar
    33     9     1   ar
    34     9     4    1
    35    20    11   ar
    36    20    14   ar
    37    28    31    1
    38     5    10    1
