@<TRIPOS>MOLECULE
*****
 26 28 0 0 0
SMALL
GASTEIGER

@<TRIPOS>ATOM
      1 C         140.8042  144.6508  163.3843 C.3     1  UNL1        0.0716
      2 C         141.8384  143.6529  163.8139 C.3     1  UNL1        0.0199
      3 C         141.6346  142.8537  165.0667 C.3     1  UNL1        0.0060
      4 C         140.3966  143.0523  165.8900 C.3     1  UNL1        0.0224
      5 C         139.3623  144.0501  165.4604 C.3     1  UNL1        0.0060
      6 C         139.5661  144.8494  164.2075 C.3     1  UNL1        0.0199
      7 C         140.1928  142.2531  167.1428 C.ar    1  UNL1       -0.0223
      8 C         139.7725  140.8157  167.0555 C.ar    1  UNL1       -0.0012
      9 C         139.5687  140.0165  168.3084 C.ar    1  UNL1        0.0363
     10 C         139.7852  140.6545  169.6485 C.ar    1  UNL1        0.1337
     11 O         139.5813  139.8552  170.9014 O.3     1  UNL1       -0.5055
     12 C         140.2055  142.0917  169.7359 C.ar    1  UNL1        0.0363
     13 C         140.4093  142.8910  168.4830 C.ar    1  UNL1       -0.0012
     14 H         139.3188  138.9574  170.8469 H       1  UNL1        0.2922
     15 O         139.2459  143.9834  160.9092 O.2     1  UNL1       -0.2751
     16 C         140.2288  145.1163  160.8939 C.2     1  UNL1        0.2228
     17 N         141.0080  145.4500  162.1314 N.am    1  UNL1       -0.3060
     18 H         141.6531  146.1936  162.1214 H       1  UNL1        0.1494
     19 C         140.4326  145.9156  159.6410 C.3     1  UNL1        0.0897
     20 C         140.7224  145.2179  158.3451 C.3     1  UNL1        0.0359
     21 C         140.4554  145.9130  157.0430 C.ar    1  UNL1       -0.0217
     22 C         139.3755  146.9502  156.9541 C.ar    1  UNL1       -0.0043
     23 C         139.1085  147.6452  155.6520 C.ar    1  UNL1       -0.0003
     24 C         139.9216  147.3032  154.4387 C.ar    1  UNL1       -0.0000
     25 C         141.0016  146.2661  154.5276 C.ar    1  UNL1       -0.0003
     26 C         141.2685  145.5710  155.8297 C.ar    1  UNL1       -0.0043
@<TRIPOS>BOND
     1    15    16    2
     2    16    19    1
     3    19    20    1
     4    20    21    1
     5    21    22   ar
     6    22    23   ar
     7    23    24   ar
     8    24    25   ar
     9    25    26   ar
    10    16    17   am
    11     1    17    1
    12     1     2    1
    13     2     3    1
    14     3     4    1
    15     4     7    1
    16     7     8   ar
    17     8     9   ar
    18     9    10   ar
    19    10    11    1
    20    10    12   ar
    21    12    13   ar
    22     4     5    1
    23     5     6    1
    24    26    21   ar
    25     6     1    1
    26    13     7   ar
    27    17    18    1
    28    11    14    1
@<TRIPOS>MOLECULE
*****
 26 28 0 0 0
SMALL
GASTEIGER

@<TRIPOS>ATOM
      1 C         142.6387  139.9771  167.5072 C.3     1  UNL1        0.0716
      2 C         142.8711  141.4009  167.9181 C.3     1  UNL1        0.0199
      3 C         142.4475  142.5209  167.0148 C.3     1  UNL1        0.0060
      4 C         141.7915  142.2172  165.7005 C.3     1  UNL1        0.0224
      5 C         141.5591  140.7934  165.2895 C.3     1  UNL1        0.0060
      6 C         141.9827  139.6733  166.1929 C.3     1  UNL1        0.0199
      7 C         141.3679  143.3371  164.7971 C.ar    1  UNL1       -0.0223
      8 C         139.9437  143.8081  164.8035 C.ar    1  UNL1       -0.0012
      9 C         139.5201  144.9281  163.9001 C.ar    1  UNL1        0.0363
     10 C         140.5206  145.5772  162.9903 C.ar    1  UNL1        0.1337
     11 O         140.0969  146.6973  162.0869 O.3     1  UNL1       -0.5055
     12 C         141.9447  145.1063  162.9839 C.ar    1  UNL1        0.0363
     13 C         142.3684  143.9862  163.8873 C.ar    1  UNL1       -0.0012
     14 H         139.2073  146.9914  162.0909 H       1  UNL1        0.2922
     15 O         141.5580  139.8129  170.3009 O.2     1  UNL1       -0.2751
     16 C         142.5220  138.7750  169.8074 C.2     1  UNL1        0.2228
     17 N         143.0623  138.8571  168.4106 N.am    1  UNL1       -0.3060
     18 H         143.6949  138.1758  168.0867 H       1  UNL1        0.1494
     19 C         142.9456  137.6550  170.7109 C.3     1  UNL1        0.0897
     20 C         144.1923  136.8778  170.4082 C.3     1  UNL1        0.0359
     21 C         144.9900  136.2744  171.5261 C.ar    1  UNL1       -0.0217
     22 C         145.9268  137.1302  172.3259 C.ar    1  UNL1       -0.0043
     23 C         146.7245  136.5267  173.4437 C.ar    1  UNL1       -0.0003
     24 C         146.5852  135.0674  173.7617 C.ar    1  UNL1       -0.0000
     25 C         145.6483  134.2116  172.9618 C.ar    1  UNL1       -0.0003
     26 C         144.8507  134.8151  171.8440 C.ar    1  UNL1       -0.0043
@<TRIPOS>BOND
     1    15    16    2
     2    16    19    1
     3    19    20    1
     4    20    21    1
     5    21    22   ar
     6    22    23   ar
     7    23    24   ar
     8    24    25   ar
     9    25    26   ar
    10    16    17   am
    11     1    17    1
    12     1     2    1
    13     2     3    1
    14     3     4    1
    15     4     7    1
    16     7     8   ar
    17     8     9   ar
    18     9    10   ar
    19    10    11    1
    20    10    12   ar
    21    12    13   ar
    22     4     5    1
    23     5     6    1
    24    26    21   ar
    25     6     1    1
    26    13     7   ar
    27    17    18    1
    28    11    14    1
@<TRIPOS>MOLECULE
*****
 26 28 0 0 0
SMALL
GASTEIGER

@<TRIPOS>ATOM
      1 C         139.2269  139.7615  164.0480 C.3     1  UNL1        0.0716
      2 C         138.5065  139.2771  165.2713 C.3     1  UNL1        0.0199
      3 C         138.9656  139.7092  166.6324 C.3     1  UNL1        0.0060
      4 C         140.1451  140.6255  166.7703 C.3     1  UNL1        0.0224
      5 C         140.8655  141.1099  165.5471 C.3     1  UNL1        0.0060
      6 C         140.4064  140.6779  164.1859 C.3     1  UNL1        0.0199
      7 C         140.6041  141.0576  168.1313 C.ar    1  UNL1       -0.0223
      8 C         140.8910  142.5049  168.4018 C.ar    1  UNL1       -0.0012
      9 C         141.3501  142.9369  169.7628 C.ar    1  UNL1        0.0363
     10 C         141.5223  141.9216  170.8536 C.ar    1  UNL1        0.1337
     11 O         141.9814  142.3537  172.2147 O.3     1  UNL1       -0.5055
     12 C         141.2354  140.4744  170.5832 C.ar    1  UNL1        0.0363
     13 C         140.7763  140.0423  169.2221 C.ar    1  UNL1       -0.0012
     14 H         142.1606  143.2578  172.3836 H       1  UNL1        0.2922
     15 O         137.1638  141.3705  162.5802 O.2     1  UNL1       -0.2751
     16 C         137.7363  140.1340  161.9530 C.2     1  UNL1        0.2228
     17 N         138.7679  139.3295  162.6869 N.am    1  UNL1       -0.3060
     18 H         139.1436  138.5180  162.2753 H       1  UNL1        0.1494
     19 C         137.2772  139.7020  160.5919 C.3     1  UNL1        0.0897
     20 C         137.9613  140.2316  159.3665 C.3     1  UNL1        0.0359
     21 C         139.0903  141.2100  159.5016 C.ar    1  UNL1       -0.0217
     22 C         138.8170  142.6836  159.4401 C.ar    1  UNL1       -0.0043
     23 C         139.9460  143.6620  159.5751 C.ar    1  UNL1       -0.0003
     24 C         141.3481  143.1667  159.7716 C.ar    1  UNL1       -0.0000
     25 C         141.6214  141.6931  159.8330 C.ar    1  UNL1       -0.0003
     26 C         140.4925  140.7148  159.6980 C.ar    1  UNL1       -0.0043
@<TRIPOS>BOND
     1    15    16    2
     2    16    19    1
     3    19    20    1
     4    20    21    1
     5    21    22   ar
     6    22    23   ar
     7    23    24   ar
     8    24    25   ar
     9    25    26   ar
    10    16    17   am
    11     1    17    1
    12     1     2    1
    13     2     3    1
    14     3     4    1
    15     4     7    1
    16     7     8   ar
    17     8     9   ar
    18     9    10   ar
    19    10    11    1
    20    10    12   ar
    21    12    13   ar
    22     4     5    1
    23     5     6    1
    24    26    21   ar
    25     6     1    1
    26    13     7   ar
    27    17    18    1
    28    11    14    1
@<TRIPOS>MOLECULE
*****
 26 28 0 0 0
SMALL
GASTEIGER

@<TRIPOS>ATOM
      1 C         139.5497  140.2592  163.2576 C.3     1  UNL1        0.0716
      2 C         138.4729  139.8715  164.2273 C.3     1  UNL1        0.0199
      3 C         138.6219  140.1984  165.6837 C.3     1  UNL1        0.0060
      4 C         139.8477  140.9129  166.1704 C.3     1  UNL1        0.0224
      5 C         140.9245  141.3006  165.2007 C.3     1  UNL1        0.0060
      6 C         140.7755  140.9738  163.7443 C.3     1  UNL1        0.0199
      7 C         139.9968  141.2397  167.6267 C.ar    1  UNL1       -0.0223
      8 C         139.6070  140.2303  168.6656 C.ar    1  UNL1       -0.0012
      9 C         139.7560  140.5571  170.1219 C.ar    1  UNL1        0.0363
     10 C         140.2948  141.8933  170.5394 C.ar    1  UNL1        0.1337
     11 O         140.4438  142.2201  171.9958 O.3     1  UNL1       -0.5055
     12 C         140.6846  142.9027  169.5006 C.ar    1  UNL1        0.0363
     13 C         140.5356  142.5759  168.0442 C.ar    1  UNL1       -0.0012
     14 H         140.2004  141.5896  172.6448 H       1  UNL1        0.2922
     15 O         140.2567  137.5217  162.2547 O.2     1  UNL1       -0.2751
     16 C         139.7542  138.5637  161.2999 C.2     1  UNL1        0.2228
     17 N         139.4006  139.9324  161.8013 N.am    1  UNL1       -0.3060
     18 H         139.0708  140.6163  161.1746 H       1  UNL1        0.1494
     19 C         139.6051  138.2368  159.8435 C.3     1  UNL1        0.0897
     20 C         140.5863  138.7817  158.8483 C.3     1  UNL1        0.0359
     21 C         141.0625  137.9208  157.7159 C.ar    1  UNL1       -0.0217
     22 C         142.5095  137.5370  157.6227 C.ar    1  UNL1       -0.0043
     23 C         142.9856  136.6762  156.4904 C.ar    1  UNL1       -0.0003
     24 C         142.0147  136.1992  155.4512 C.ar    1  UNL1       -0.0000
     25 C         140.5677  136.5830  155.5444 C.ar    1  UNL1       -0.0003
     26 C         140.0916  137.4438  156.6768 C.ar    1  UNL1       -0.0043
@<TRIPOS>BOND
     1    15    16    2
     2    16    19    1
     3    19    20    1
     4    20    21    1
     5    21    22   ar
     6    22    23   ar
     7    23    24   ar
     8    24    25   ar
     9    25    26   ar
    10    16    17   am
    11     1    17    1
    12     1     2    1
    13     2     3    1
    14     3     4    1
    15     4     7    1
    16     7     8   ar
    17     8     9   ar
    18     9    10   ar
    19    10    11    1
    20    10    12   ar
    21    12    13   ar
    22     4     5    1
    23     5     6    1
    24    26    21   ar
    25     6     1    1
    26    13     7   ar
    27    17    18    1
    28    11    14    1
@<TRIPOS>MOLECULE
*****
 26 28 0 0 0
SMALL
GASTEIGER

@<TRIPOS>ATOM
      1 C         141.8830  138.2303  163.9763 C.3     1  UNL1        0.0716
      2 C         140.5001  138.6236  164.4042 C.3     1  UNL1        0.0199
      3 C         140.2811  139.2511  165.7488 C.3     1  UNL1        0.0060
      4 C         141.4450  139.4855  166.6657 C.3     1  UNL1        0.0224
      5 C         142.8278  139.0922  166.2378 C.3     1  UNL1        0.0060
      6 C         143.0469  138.4646  164.8931 C.3     1  UNL1        0.0199
      7 C         141.2260  140.1130  168.0103 C.ar    1  UNL1       -0.0223
      8 C         139.8342  140.2678  168.5481 C.ar    1  UNL1       -0.0012
      9 C         139.6152  140.8954  169.8927 C.ar    1  UNL1        0.0363
     10 C         140.7879  141.3682  170.6997 C.ar    1  UNL1        0.1337
     11 O         140.5688  141.9957  172.0444 O.3     1  UNL1       -0.5055
     12 C         142.1796  141.2134  170.1620 C.ar    1  UNL1        0.0363
     13 C         142.3987  140.5858  168.8173 C.ar    1  UNL1       -0.0012
     14 H         139.6995  142.0924  172.3803 H       1  UNL1        0.2922
     15 O         142.9935  139.8665  161.7204 O.2     1  UNL1       -0.2751
     16 C         142.6573  138.4209  161.5037 C.2     1  UNL1        0.2228
     17 N         142.1020  137.6027  162.6316 N.am    1  UNL1       -0.3060
     18 H         141.8813  136.6539  162.4894 H       1  UNL1        0.1494
     19 C         142.8763  137.7933  160.1589 C.3     1  UNL1        0.0897
     20 C         142.2207  138.3776  158.9429 C.3     1  UNL1        0.0359
     21 C         141.9047  137.5014  157.7671 C.ar    1  UNL1       -0.0217
     22 C         142.8637  136.4239  157.3554 C.ar    1  UNL1       -0.0043
     23 C         142.5476  135.5478  156.1797 C.ar    1  UNL1       -0.0003
     24 C         141.2726  135.7490  155.4156 C.ar    1  UNL1       -0.0000
     25 C         140.3136  136.8265  155.8272 C.ar    1  UNL1       -0.0003
     26 C         140.6297  137.7026  157.0030 C.ar    1  UNL1       -0.0043
@<TRIPOS>BOND
     1    15    16    2
     2    16    19    1
     3    19    20    1
     4    20    21    1
     5    21    22   ar
     6    22    23   ar
     7    23    24   ar
     8    24    25   ar
     9    25    26   ar
    10    16    17   am
    11     1    17    1
    12     1     2    1
    13     2     3    1
    14     3     4    1
    15     4     7    1
    16     7     8   ar
    17     8     9   ar
    18     9    10   ar
    19    10    11    1
    20    10    12   ar
    21    12    13   ar
    22     4     5    1
    23     5     6    1
    24    26    21   ar
    25     6     1    1
    26    13     7   ar
    27    17    18    1
    28    11    14    1
@<TRIPOS>MOLECULE
*****
 26 28 0 0 0
SMALL
GASTEIGER

@<TRIPOS>ATOM
      1 C         144.5109  142.1167  163.8024 C.3     1  UNL1        0.0716
      2 C         144.4428  143.2265  164.8093 C.3     1  UNL1        0.0199
      3 C         143.8195  142.9838  166.1519 C.3     1  UNL1        0.0060
      4 C         143.2643  141.6314  166.4876 C.3     1  UNL1        0.0224
      5 C         143.3324  140.5217  165.4807 C.3     1  UNL1        0.0060
      6 C         143.9557  140.7643  164.1381 C.3     1  UNL1        0.0199
      7 C         142.6409  141.3887  167.8302 C.ar    1  UNL1       -0.0223
      8 C         142.8380  142.3799  168.9388 C.ar    1  UNL1       -0.0012
      9 C         142.2147  142.1372  170.2813 C.ar    1  UNL1        0.0363
     10 C         141.3943  140.9034  170.5154 C.ar    1  UNL1        0.1337
     11 O         140.7709  140.6608  171.8580 O.3     1  UNL1       -0.5055
     12 C         141.1972  139.9123  169.4069 C.ar    1  UNL1        0.0363
     13 C         141.8205  140.1550  168.0642 C.ar    1  UNL1       -0.0012
     14 H         140.8940  141.2799  172.5505 H       1  UNL1        0.2922
     15 O         142.7735  142.4375  161.3779 O.2     1  UNL1       -0.2751
     16 C         144.2655  142.5198  161.2476 C.2     1  UNL1        0.2228
     17 N         145.1343  142.3594  162.4598 N.am    1  UNL1       -0.3060
     18 H         146.1135  142.4134  162.3743 H       1  UNL1        0.1494
     19 C         144.8888  142.7625  159.9049 C.3     1  UNL1        0.0897
     20 C         144.4161  141.9916  158.7082 C.3     1  UNL1        0.0359
     21 C         145.3231  141.8088  157.5275 C.ar    1  UNL1       -0.0217
     22 C         146.5427  142.6692  157.3784 C.ar    1  UNL1       -0.0043
     23 C         147.4497  142.4864  156.1978 C.ar    1  UNL1       -0.0003
     24 C         147.1370  141.4433  155.1662 C.ar    1  UNL1       -0.0000
     25 C         145.9173  140.5830  155.3152 C.ar    1  UNL1       -0.0003
     26 C         145.0104  140.7658  156.4959 C.ar    1  UNL1       -0.0043
@<TRIPOS>BOND
     1    15    16    2
     2    16    19    1
     3    19    20    1
     4    20    21    1
     5    21    22   ar
     6    22    23   ar
     7    23    24   ar
     8    24    25   ar
     9    25    26   ar
    10    16    17   am
    11     1    17    1
    12     1     2    1
    13     2     3    1
    14     3     4    1
    15     4     7    1
    16     7     8   ar
    17     8     9   ar
    18     9    10   ar
    19    10    11    1
    20    10    12   ar
    21    12    13   ar
    22     4     5    1
    23     5     6    1
    24    26    21   ar
    25     6     1    1
    26    13     7   ar
    27    17    18    1
    28    11    14    1
@<TRIPOS>MOLECULE
*****
 26 28 0 0 0
SMALL
GASTEIGER

@<TRIPOS>ATOM
      1 C         140.8433  144.5499  163.3127 C.3     1  UNL1        0.0716
      2 C         141.8251  143.4897  163.7154 C.3     1  UNL1        0.0199
      3 C         141.6102  142.7092  164.9782 C.3     1  UNL1        0.0060
      4 C         140.4135  142.9888  165.8383 C.3     1  UNL1        0.0224
      5 C         139.4317  144.0489  165.4356 C.3     1  UNL1        0.0060
      6 C         139.6466  144.8295  164.1728 C.3     1  UNL1        0.0199
      7 C         140.1987  142.2082  167.1010 C.ar    1  UNL1       -0.0223
      8 C         140.4194  142.8614  168.4332 C.ar    1  UNL1       -0.0012
      9 C         140.2045  142.0808  169.6960 C.ar    1  UNL1        0.0363
     10 C         139.7689  140.6472  169.6266 C.ar    1  UNL1        0.1337
     11 O         139.5540  139.8666  170.8894 O.3     1  UNL1       -0.5055
     12 C         139.5482  139.9940  168.2944 C.ar    1  UNL1        0.0363
     13 C         139.7630  140.7746  167.0316 C.ar    1  UNL1       -0.0012
     14 H         139.6919  140.2746  171.7215 H       1  UNL1        0.2922
     15 O         139.2218  143.9233  160.8678 O.2     1  UNL1       -0.2751
     16 C         140.2474  145.0171  160.8275 C.2     1  UNL1        0.2228
     17 N         141.0581  145.3304  162.0500 N.am    1  UNL1       -0.3060
     18 H         141.7313  146.0484  162.0236 H       1  UNL1        0.1494
     19 C         140.4622  145.7977  159.5647 C.3     1  UNL1        0.0897
     20 C         140.3729  145.1110  158.2342 C.3     1  UNL1        0.0359
     21 C         141.2329  143.9158  157.9477 C.ar    1  UNL1       -0.0217
     22 C         140.5993  142.6050  157.5867 C.ar    1  UNL1       -0.0043
     23 C         141.4593  141.4099  157.3003 C.ar    1  UNL1       -0.0003
     24 C         142.9529  141.5255  157.3750 C.ar    1  UNL1       -0.0000
     25 C         143.5866  142.8363  157.7360 C.ar    1  UNL1       -0.0003
     26 C         142.7266  144.0314  158.0224 C.ar    1  UNL1       -0.0043
@<TRIPOS>BOND
     1    15    16    2
     2    16    19    1
     3    19    20    1
     4    20    21    1
     5    21    22   ar
     6    22    23   ar
     7    23    24   ar
     8    24    25   ar
     9    25    26   ar
    10    16    17   am
    11     1    17    1
    12     1     2    1
    13     2     3    1
    14     3     4    1
    15     4     7    1
    16     7     8   ar
    17     8     9   ar
    18     9    10   ar
    19    10    11    1
    20    10    12   ar
    21    12    13   ar
    22     4     5    1
    23     5     6    1
    24    26    21   ar
    25     6     1    1
    26    13     7   ar
    27    17    18    1
    28    11    14    1
@<TRIPOS>MOLECULE
*****
 26 28 0 0 0
SMALL
GASTEIGER

@<TRIPOS>ATOM
      1 C         139.4567  140.3924  163.4007 C.3     1  UNL1        0.0716
      2 C         138.7746  139.5479  164.4358 C.3     1  UNL1        0.0199
      3 C         138.9569  139.8544  165.8928 C.3     1  UNL1        0.0060
      4 C         139.8213  141.0053  166.3147 C.3     1  UNL1        0.0224
      5 C         140.5035  141.8498  165.2796 C.3     1  UNL1        0.0060
      6 C         140.3212  141.5434  163.8225 C.3     1  UNL1        0.0199
      7 C         140.0036  141.3118  167.7716 C.ar    1  UNL1       -0.0223
      8 C         139.5975  140.3047  168.8065 C.ar    1  UNL1       -0.0012
      9 C         139.7798  140.6112  170.2634 C.ar    1  UNL1        0.0363
     10 C         140.3683  141.9248  170.6857 C.ar    1  UNL1        0.1337
     11 O         140.5506  142.2312  172.1427 O.3     1  UNL1       -0.5055
     12 C         140.7744  142.9319  169.6509 C.ar    1  UNL1        0.0363
     13 C         140.5921  142.6254  168.1938 C.ar    1  UNL1       -0.0012
     14 H         140.2969  141.6021  172.7891 H       1  UNL1        0.2922
     15 O         137.3844  141.8632  161.8064 O.2     1  UNL1       -0.2751
     16 C         138.2383  140.8213  161.1466 C.2     1  UNL1        0.2228
     17 N         139.2744  140.0859  161.9437 N.am    1  UNL1       -0.3060
     18 H         139.8348  139.4021  161.5106 H       1  UNL1        0.1494
     19 C         138.0559  140.5149  159.6895 C.3     1  UNL1        0.0897
     20 C         138.6681  141.4093  158.6526 C.3     1  UNL1        0.0359
     21 C         137.8567  141.8535  157.4717 C.ar    1  UNL1       -0.0217
     22 C         138.1579  143.1626  156.8045 C.ar    1  UNL1       -0.0043
     23 C         137.3466  143.6067  155.6236 C.ar    1  UNL1       -0.0003
     24 C         136.2340  142.7416  155.1100 C.ar    1  UNL1       -0.0000
     25 C         135.9328  141.4325  155.7773 C.ar    1  UNL1       -0.0003
     26 C         136.7441  140.9884  156.9581 C.ar    1  UNL1       -0.0043
@<TRIPOS>BOND
     1    15    16    2
     2    16    19    1
     3    19    20    1
     4    20    21    1
     5    21    22   ar
     6    22    23   ar
     7    23    24   ar
     8    24    25   ar
     9    25    26   ar
    10    16    17   am
    11     1    17    1
    12     1     2    1
    13     2     3    1
    14     3     4    1
    15     4     7    1
    16     7     8   ar
    17     8     9   ar
    18     9    10   ar
    19    10    11    1
    20    10    12   ar
    21    12    13   ar
    22     4     5    1
    23     5     6    1
    24    26    21   ar
    25     6     1    1
    26    13     7   ar
    27    17    18    1
    28    11    14    1
@<TRIPOS>MOLECULE
*****
 26 28 0 0 0
SMALL
GASTEIGER

@<TRIPOS>ATOM
      1 C         142.1165  138.3137  164.2155 C.3     1  UNL1        0.0716
      2 C         140.7549  138.8527  164.5406 C.3     1  UNL1        0.0199
      3 C         140.4988  139.4883  165.8750 C.3     1  UNL1        0.0060
      4 C         141.6043  139.5849  166.8842 C.3     1  UNL1        0.0224
      5 C         142.9658  139.0459  166.5592 C.3     1  UNL1        0.0060
      6 C         143.2219  138.4103  165.2248 C.3     1  UNL1        0.0199
      7 C         141.3482  140.2204  168.2185 C.ar    1  UNL1       -0.0223
      8 C         139.9446  140.3460  168.7325 C.ar    1  UNL1       -0.0012
      9 C         139.6885  140.9816  170.0668 C.ar    1  UNL1        0.0363
     10 C         140.8360  141.4916  170.8872 C.ar    1  UNL1        0.1337
     11 O         140.5799  142.1271  172.2216 O.3     1  UNL1       -0.5055
     12 C         142.2396  141.3660  170.3734 C.ar    1  UNL1        0.0363
     13 C         142.4957  140.7304  169.0390 C.ar    1  UNL1       -0.0012
     14 H         139.7031  142.2056  172.5426 H       1  UNL1        0.2922
     15 O         143.5389  139.8530  162.0692 O.2     1  UNL1       -0.2751
     16 C         143.0838  138.4478  161.8080 C.2     1  UNL1        0.2228
     17 N         142.3725  137.6781  162.8812 N.am    1  UNL1       -0.3060
     18 H         142.0738  136.7559  162.7098 H       1  UNL1        0.1494
     19 C         143.3399  137.8122  160.4736 C.3     1  UNL1        0.0897
     20 C         142.2993  137.8858  159.3958 C.3     1  UNL1        0.0359
     21 C         141.1526  138.8443  159.5245 C.ar    1  UNL1       -0.0217
     22 C         139.8497  138.3813  160.1058 C.ar    1  UNL1       -0.0043
     23 C         138.7031  139.3398  160.2344 C.ar    1  UNL1       -0.0003
     24 C         138.8594  140.7612  159.7817 C.ar    1  UNL1       -0.0000
     25 C         140.1623  141.2242  159.2004 C.ar    1  UNL1       -0.0003
     26 C         141.3089  140.2657  159.0717 C.ar    1  UNL1       -0.0043
@<TRIPOS>BOND
     1    15    16    2
     2    16    19    1
     3    19    20    1
     4    20    21    1
     5    21    22   ar
     6    22    23   ar
     7    23    24   ar
     8    24    25   ar
     9    25    26   ar
    10    16    17   am
    11     1    17    1
    12     1     2    1
    13     2     3    1
    14     3     4    1
    15     4     7    1
    16     7     8   ar
    17     8     9   ar
    18     9    10   ar
    19    10    11    1
    20    10    12   ar
    21    12    13   ar
    22     4     5    1
    23     5     6    1
    24    26    21   ar
    25     6     1    1
    26    13     7   ar
    27    17    18    1
    28    11    14    1
