@<TRIPOS>MOLECULE
*****
 30 34 0 0 0
SMALL
GASTEIGER

@<TRIPOS>ATOM
      1 C         142.9822  139.2920  159.1976 C.2     1  UNL1        0.2455
      2 O         144.2996  139.8842  158.7929 O.2     1  UNL1       -0.2702
      3 N         142.5103  139.4115  160.6164 N.am    1  UNL1       -0.2763
      4 C         143.3558  140.1233  161.6305 C.3     1  UNL1        0.0937
      5 C         142.8839  140.2428  163.0493 C.3     1  UNL1        0.0223
      6 C         141.5665  139.6506  163.4540 C.3     1  UNL1        0.0148
      7 C         140.7210  138.9389  162.4398 C.3     1  UNL1        0.0223
      8 C         141.1929  138.8193  161.0211 C.3     1  UNL1        0.0937
      9 C         142.4120  140.3624  164.4682 C.3     1  UNL1        0.0712
     10 C         141.9401  140.4819  165.8869 C.2     1  UNL1        0.1899
     11 O         142.7856  141.1937  166.9012 O.2     1  UNL1       -0.2898
     12 C         140.6227  139.8897  166.2916 C.ar    1  UNL1        0.1099
     13 C         139.7772  139.1780  165.2775 C.ar    1  UNL1        0.0188
     14 C         138.5334  138.6985  165.9652 C.ar    1  UNL1        0.1174
     15 N         138.6102  139.1139  167.4045 N.ar    1  UNL1       -0.1680
     16 N         139.9015  139.8501  167.6062 N.ar    1  UNL1       -0.2503
     17 C         140.2491  139.0584  163.8586 C.3     1  UNL1        0.0301
     18 C         137.1243  137.6980  154.2209 C.3     1  UNL1        0.1367
     19 C         138.3481  137.7480  155.0868 C.2     1  UNL1        0.3518
     20 N         139.4142  136.6960  155.1683 N.2     1  UNL1       -0.0350
     21 C         140.4457  137.1567  156.1551 C.2     1  UNL1        0.2317
     22 C         141.7198  136.5317  156.6407 C.2     1  UNL1        0.0500
     23 C         142.5654  137.2434  157.6549 C.2     1  UNL1        0.0046
     24 C         142.1367  138.5802  158.1834 C.2     1  UNL1        0.0399
     25 C         140.8625  139.2052  157.6977 C.3     1  UNL1        0.1086
     26 C         140.0170  138.4935  156.6836 C.2     1  UNL1        0.2176
     27 N         138.7207  138.8589  156.0234 N.2     1  UNL1       -0.0389
     28 C         140.3864  140.4428  168.8961 C.3     1  UNL1        0.1054
     29 C         141.1830  139.6064  169.8530 C.3     1  UNL1        0.0263
     30 C         140.0746  141.8718  169.2290 C.3     1  UNL1        0.0263
@<TRIPOS>BOND
     1    18    19    1
     2    19    20    2
     3    20    21    1
     4    21    22    2
     5    22    23    1
     6    23    24    2
     7    24     1    1
     8     1     2    2
     9     1     3   am
    10     3     4    1
    11     4     5    1
    12     5     6    1
    13     6     7    1
    14     7     8    1
    15     6     9    1
    16     9    10    1
    17    10    11    2
    18    10    12    1
    19    12    13   ar
    20    13    14   ar
    21    14    15   ar
    22    15    16   ar
    23    16    28    1
    24    28    29    1
    25    28    30    1
    26    13    17    1
    27    24    25    1
    28    25    26    1
    29    26    27    2
    30    27    19    1
    31    26    21    1
    32     8     3    1
    33    16    12   ar
    34    17     6    1
@<TRIPOS>MOLECULE
*****
 30 34 0 0 0
SMALL
GASTEIGER

@<TRIPOS>ATOM
      1 C         138.9985  138.7343  165.3146 C.2     1  UNL1        0.2455
      2 O         138.4302  137.3531  165.4541 O.2     1  UNL1       -0.2702
      3 N         138.9692  139.4264  163.9842 N.am    1  UNL1       -0.2763
      4 C         138.3718  138.7374  162.7933 C.3     1  UNL1        0.0937
      5 C         138.3426  139.4296  161.4629 C.3     1  UNL1        0.0223
      6 C         138.9108  140.8108  161.3234 C.3     1  UNL1        0.0148
      7 C         139.5082  141.4998  162.5143 C.3     1  UNL1        0.0223
      8 C         139.5375  140.8076  163.8447 C.3     1  UNL1        0.0937
      9 C         138.3134  140.1218  160.1324 C.3     1  UNL1        0.0712
     10 C         138.2842  140.8140  158.8020 C.2     1  UNL1        0.1899
     11 O         137.6867  140.1249  157.6110 O.2     1  UNL1       -0.2898
     12 C         138.8524  142.1951  158.6625 C.ar    1  UNL1        0.1099
     13 C         139.4498  142.8841  159.8534 C.ar    1  UNL1        0.0188
     14 C         139.9304  144.2355  159.4144 C.ar    1  UNL1        0.1174
     15 N         139.6300  144.3817  157.9520 N.ar    1  UNL1       -0.1680
     16 N         138.9637  143.1207  157.4874 N.ar    1  UNL1       -0.2503
     17 C         139.4790  142.1920  161.1839 C.3     1  UNL1        0.0301
     18 C         144.1367  142.4745  169.9226 C.3     1  UNL1        0.1367
     19 C         142.9786  141.7807  169.2688 C.2     1  UNL1        0.3518
     20 N         141.6417  141.5157  169.8953 N.2     1  UNL1       -0.0350
     21 C         140.7908  140.8013  168.8874 C.2     1  UNL1        0.2317
     22 C         139.3824  140.2888  168.9459 C.2     1  UNL1        0.0500
     23 C         138.7849  139.5997  167.7550 C.2     1  UNL1        0.0046
     24 C         139.5959  139.4233  166.5055 C.2     1  UNL1        0.0399
     25 C         141.0044  139.9359  166.4471 C.3     1  UNL1        0.1086
     26 C         141.6019  140.6249  167.6380 C.2     1  UNL1        0.2176
     27 N         142.9539  141.2302  167.8737 N.2     1  UNL1       -0.0389
     28 C         138.4917  142.8353  156.0924 C.3     1  UNL1        0.1054
     29 C         137.1125  143.2455  155.6688 C.3     1  UNL1        0.0263
     30 C         139.3988  142.1396  155.1212 C.3     1  UNL1        0.0263
@<TRIPOS>BOND
     1    18    19    1
     2    19    20    2
     3    20    21    1
     4    21    22    2
     5    22    23    1
     6    23    24    2
     7    24     1    1
     8     1     2    2
     9     1     3   am
    10     3     4    1
    11     4     5    1
    12     5     6    1
    13     6     7    1
    14     7     8    1
    15     6     9    1
    16     9    10    1
    17    10    11    2
    18    10    12    1
    19    12    13   ar
    20    13    14   ar
    21    14    15   ar
    22    15    16   ar
    23    16    28    1
    24    28    29    1
    25    28    30    1
    26    13    17    1
    27    24    25    1
    28    25    26    1
    29    26    27    2
    30    27    19    1
    31    26    21    1
    32     8     3    1
    33    16    12   ar
    34    17     6    1
@<TRIPOS>MOLECULE
*****
 30 34 0 0 0
SMALL
GASTEIGER

@<TRIPOS>ATOM
      1 C         140.6160  142.2856  159.5473 C.2     1  UNL1        0.2455
      2 O         141.6053  143.3326  159.1290 O.2     1  UNL1       -0.2702
      3 N         140.4465  141.9517  160.9999 N.am    1  UNL1       -0.2763
      4 C         141.2663  142.6648  162.0340 C.3     1  UNL1        0.0937
      5 C         141.0967  142.3309  163.4865 C.3     1  UNL1        0.0223
      6 C         140.1074  141.2838  163.9048 C.3     1  UNL1        0.0148
      7 C         139.2877  140.5707  162.8707 C.3     1  UNL1        0.0223
      8 C         139.4572  140.9047  161.4183 C.3     1  UNL1        0.0937
      9 C         140.9272  141.9970  164.9390 C.3     1  UNL1        0.0712
     10 C         140.7577  141.6631  166.3915 C.2     1  UNL1        0.1899
     11 O         141.5775  142.3762  167.4257 O.2     1  UNL1       -0.2898
     12 C         139.7684  140.6160  166.8099 C.ar    1  UNL1        0.1099
     13 C         138.9486  139.9029  165.7758 C.ar    1  UNL1        0.0188
     14 C         138.0590  138.9243  166.4834 C.ar    1  UNL1        0.1174
     15 N         138.3290  139.0326  167.9550 N.ar    1  UNL1       -0.1680
     16 N         139.3854  140.0781  168.1567 N.ar    1  UNL1       -0.2503
     17 C         139.1181  140.2368  164.3232 C.3     1  UNL1        0.0301
     18 C         134.7772  140.5792  154.5855 C.3     1  UNL1        0.1367
     19 C         136.0105  140.6615  155.4354 C.2     1  UNL1        0.3518
     20 N         137.1371  139.6713  155.4525 N.2     1  UNL1       -0.0350
     21 C         138.1566  140.1462  156.4450 C.2     1  UNL1        0.2317
     22 C         139.4729  139.5757  156.8828 C.2     1  UNL1        0.0500
     23 C         140.2928  140.2888  157.9170 C.2     1  UNL1        0.0046
     24 C         139.7962  141.5725  158.5132 C.2     1  UNL1        0.0399
     25 C         138.4799  142.1431  158.0754 C.3     1  UNL1        0.1086
     26 C         137.6601  141.4299  157.0413 C.2     1  UNL1        0.2176
     27 N         136.3337  141.7483  156.4173 N.2     1  UNL1       -0.0389
     28 C         139.9584  140.5100  169.4741 C.3     1  UNL1        0.1054
     29 C         141.0553  139.7110  170.1128 C.3     1  UNL1        0.0263
     30 C         139.4342  141.7408  170.1525 C.3     1  UNL1        0.0263
@<TRIPOS>BOND
     1    18    19    1
     2    19    20    2
     3    20    21    1
     4    21    22    2
     5    22    23    1
     6    23    24    2
     7    24     1    1
     8     1     2    2
     9     1     3   am
    10     3     4    1
    11     4     5    1
    12     5     6    1
    13     6     7    1
    14     7     8    1
    15     6     9    1
    16     9    10    1
    17    10    11    2
    18    10    12    1
    19    12    13   ar
    20    13    14   ar
    21    14    15   ar
    22    15    16   ar
    23    16    28    1
    24    28    29    1
    25    28    30    1
    26    13    17    1
    27    24    25    1
    28    25    26    1
    29    26    27    2
    30    27    19    1
    31    26    21    1
    32     8     3    1
    33    16    12   ar
    34    17     6    1
@<TRIPOS>MOLECULE
*****
 30 34 0 0 0
SMALL
GASTEIGER

@<TRIPOS>ATOM
      1 C         143.7016  141.5659  160.7394 C.2     1  UNL1        0.2455
      2 O         144.8924  142.4257  160.4349 O.2     1  UNL1       -0.2702
      3 N         143.1761  141.4820  162.1419 N.am    1  UNL1       -0.2763
      4 C         143.8413  142.2580  163.2397 C.3     1  UNL1        0.0937
      5 C         143.3157  142.1741  164.6421 C.3     1  UNL1        0.0223
      6 C         142.1250  141.3142  164.9466 C.3     1  UNL1        0.0148
      7 C         141.4597  140.5383  163.8488 C.3     1  UNL1        0.0223
      8 C         141.9853  140.6222  162.4464 C.3     1  UNL1        0.0937
      9 C         142.7902  142.0902  166.0446 C.3     1  UNL1        0.0712
     10 C         142.2646  142.0063  167.4470 C.2     1  UNL1        0.1899
     11 O         142.9298  142.7823  168.5449 O.2     1  UNL1       -0.2898
     12 C         141.0738  141.1464  167.7515 C.ar    1  UNL1        0.1099
     13 C         140.4086  140.3705  166.6536 C.ar    1  UNL1        0.0188
     14 C         139.2607  139.6125  167.2515 C.ar    1  UNL1        0.1174
     15 N         139.2164  139.9200  168.7190 N.ar    1  UNL1       -0.1680
     16 N         140.3370  140.8680  169.0280 N.ar    1  UNL1       -0.2503
     17 C         140.9342  140.4544  165.2511 C.3     1  UNL1        0.0301
     18 C         141.8111  135.6769  155.9053 C.3     1  UNL1        0.1367
     19 C         141.9756  136.9506  156.6802 C.2     1  UNL1        0.3518
     20 N         141.2264  138.2287  156.4450 N.2     1  UNL1       -0.0350
     21 C         141.7059  139.2380  157.4458 C.2     1  UNL1        0.2317
     22 C         141.3256  140.6682  157.6900 C.2     1  UNL1        0.0500
     23 C         141.9908  141.4442  158.7879 C.2     1  UNL1        0.0046
     24 C         143.0364  140.7899  159.6415 C.2     1  UNL1        0.0399
     25 C         143.4167  139.3596  159.3973 C.3     1  UNL1        0.1086
     26 C         142.7515  138.5837  158.2994 C.2     1  UNL1        0.2176
     27 N         142.9182  137.1700  157.8262 N.2     1  UNL1       -0.0389
     28 C         140.6635  141.4377  170.3768 C.3     1  UNL1        0.1054
     29 C         139.9558  142.6677  170.8626 C.3     1  UNL1        0.0263
     30 C         141.6976  140.7772  171.2395 C.3     1  UNL1        0.0263
@<TRIPOS>BOND
     1    18    19    1
     2    19    20    2
     3    20    21    1
     4    21    22    2
     5    22    23    1
     6    23    24    2
     7    24     1    1
     8     1     2    2
     9     1     3   am
    10     3     4    1
    11     4     5    1
    12     5     6    1
    13     6     7    1
    14     7     8    1
    15     6     9    1
    16     9    10    1
    17    10    11    2
    18    10    12    1
    19    12    13   ar
    20    13    14   ar
    21    14    15   ar
    22    15    16   ar
    23    16    28    1
    24    28    29    1
    25    28    30    1
    26    13    17    1
    27    24    25    1
    28    25    26    1
    29    26    27    2
    30    27    19    1
    31    26    21    1
    32     8     3    1
    33    16    12   ar
    34    17     6    1
@<TRIPOS>MOLECULE
*****
 30 34 0 0 0
SMALL
GASTEIGER

@<TRIPOS>ATOM
      1 C         143.0631  138.2120  156.9957 C.2     1  UNL1        0.2455
      2 O         144.1406  138.9494  156.2572 O.2     1  UNL1       -0.2702
      3 N         142.4111  138.8381  158.1928 N.am    1  UNL1       -0.2763
      4 C         142.8365  140.2014  158.6513 C.3     1  UNL1        0.0937
      5 C         142.1845  140.8274  159.8483 C.3     1  UNL1        0.0223
      6 C         141.1070  140.0901  160.5868 C.3     1  UNL1        0.0148
      7 C         140.6816  138.7267  160.1283 C.3     1  UNL1        0.0223
      8 C         141.3336  138.1007  158.9313 C.3     1  UNL1        0.0937
      9 C         141.5324  141.4535  161.0454 C.3     1  UNL1        0.0712
     10 C         140.8804  142.0794  162.2425 C.2     1  UNL1        0.1899
     11 O         141.3058  143.4428  162.7011 O.2     1  UNL1       -0.2898
     12 C         139.8029  141.3421  162.9810 C.ar    1  UNL1        0.1099
     13 C         139.3775  139.9788  162.5224 C.ar    1  UNL1        0.0188
     14 C         138.2964  139.4963  163.4435 C.ar    1  UNL1        0.1174
     15 N         138.0536  140.5615  164.4713 N.ar    1  UNL1       -0.1680
     16 N         138.9847  141.7023  164.1855 N.ar    1  UNL1       -0.2503
     17 C         140.0295  139.3527  161.3253 C.3     1  UNL1        0.0301
     18 C         142.6748  130.4034  156.2904 C.3     1  UNL1        0.1367
     19 C         142.5390  131.8959  156.2282 C.2     1  UNL1        0.3518
     20 N         141.5804  132.6587  155.3626 N.2     1  UNL1       -0.0350
     21 C         141.7869  134.1220  155.6201 C.2     1  UNL1        0.2317
     22 C         141.1261  135.3437  155.0538 C.2     1  UNL1        0.0500
     23 C         141.5515  136.7071  155.5123 C.2     1  UNL1        0.0046
     24 C         142.6377  136.8487  156.5371 C.2     1  UNL1        0.0399
     25 C         143.2984  135.6269  157.1034 C.3     1  UNL1        0.1086
     26 C         142.8730  134.2635  156.6449 C.2     1  UNL1        0.2176
     27 N         143.3378  132.8878  157.0207 N.2     1  UNL1       -0.0389
     28 C         139.0808  142.9791  164.9669 C.3     1  UNL1        0.1054
     29 C         138.1594  144.1206  164.6545 C.3     1  UNL1        0.0263
     30 C         140.0983  143.1142  166.0607 C.3     1  UNL1        0.0263
@<TRIPOS>BOND
     1    18    19    1
     2    19    20    2
     3    20    21    1
     4    21    22    2
     5    22    23    1
     6    23    24    2
     7    24     1    1
     8     1     2    2
     9     1     3   am
    10     3     4    1
    11     4     5    1
    12     5     6    1
    13     6     7    1
    14     7     8    1
    15     6     9    1
    16     9    10    1
    17    10    11    2
    18    10    12    1
    19    12    13   ar
    20    13    14   ar
    21    14    15   ar
    22    15    16   ar
    23    16    28    1
    24    28    29    1
    25    28    30    1
    26    13    17    1
    27    24    25    1
    28    25    26    1
    29    26    27    2
    30    27    19    1
    31    26    21    1
    32     8     3    1
    33    16    12   ar
    34    17     6    1
@<TRIPOS>MOLECULE
*****
 30 34 0 0 0
SMALL
GASTEIGER

@<TRIPOS>ATOM
      1 C         140.4030  138.3120  163.2480 C.2     1  UNL1        0.2455
      2 O         140.7250  136.8823  162.9283 O.2     1  UNL1       -0.2702
      3 N         140.4878  139.3577  162.1759 N.am    1  UNL1       -0.2763
      4 C         140.8945  138.9737  160.7841 C.3     1  UNL1        0.0937
      5 C         140.9792  140.0193  159.7121 C.3     1  UNL1        0.0223
      6 C         140.6572  141.4490  160.0318 C.3     1  UNL1        0.0148
      7 C         140.2505  141.8331  161.4235 C.3     1  UNL1        0.0223
      8 C         140.1658  140.7874  162.4956 C.3     1  UNL1        0.0937
      9 C         141.0639  141.0650  158.6399 C.3     1  UNL1        0.0712
     10 C         141.1487  142.1107  157.5679 C.2     1  UNL1        0.1899
     11 O         141.5554  141.7267  156.1760 O.2     1  UNL1       -0.2898
     12 C         140.8267  143.5404  157.8876 C.ar    1  UNL1        0.1099
     13 C         140.4199  143.9245  159.2793 C.ar    1  UNL1        0.0188
     14 C         140.1639  145.4023  159.2964 C.ar    1  UNL1        0.1174
     15 N         140.4125  145.9317  157.9150 N.ar    1  UNL1       -0.1680
     16 N         140.8220  144.7810  157.0444 N.ar    1  UNL1       -0.2503
     17 C         140.3352  142.8788  160.3515 C.3     1  UNL1        0.0301
     18 C         140.8303  140.6931  170.7160 C.3     1  UNL1        0.1367
     19 C         140.4659  140.2194  169.3402 C.2     1  UNL1        0.3518
     20 N         139.0831  139.8985  168.8557 N.2     1  UNL1       -0.0350
     21 C         139.1829  139.4642  167.4234 C.2     1  UNL1        0.2317
     22 C         138.1450  139.0277  166.4323 C.2     1  UNL1        0.0500
     23 C         138.5517  138.6437  165.0404 C.2     1  UNL1        0.0046
     24 C         139.9963  138.6961  164.6398 C.2     1  UNL1        0.0399
     25 C         141.0342  139.1325  165.6310 C.3     1  UNL1        0.1086
     26 C         140.6274  139.5166  167.0228 C.2     1  UNL1        0.2176
     27 N         141.4203  139.9833  168.2074 N.2     1  UNL1       -0.0389
     28 C         141.1666  144.8573  155.5864 C.3     1  UNL1        0.1054
     29 C         142.6004  144.9639  155.1593 C.3     1  UNL1        0.0263
     30 C         140.0771  144.8271  154.5558 C.3     1  UNL1        0.0263
@<TRIPOS>BOND
     1    18    19    1
     2    19    20    2
     3    20    21    1
     4    21    22    2
     5    22    23    1
     6    23    24    2
     7    24     1    1
     8     1     2    2
     9     1     3   am
    10     3     4    1
    11     4     5    1
    12     5     6    1
    13     6     7    1
    14     7     8    1
    15     6     9    1
    16     9    10    1
    17    10    11    2
    18    10    12    1
    19    12    13   ar
    20    13    14   ar
    21    14    15   ar
    22    15    16   ar
    23    16    28    1
    24    28    29    1
    25    28    30    1
    26    13    17    1
    27    24    25    1
    28    25    26    1
    29    26    27    2
    30    27    19    1
    31    26    21    1
    32     8     3    1
    33    16    12   ar
    34    17     6    1
@<TRIPOS>MOLECULE
*****
 30 34 0 0 0
SMALL
GASTEIGER

@<TRIPOS>ATOM
      1 C         142.7787  137.4224  155.6239 C.2     1  UNL1        0.2455
      2 O         142.9085  137.9759  154.2358 O.2     1  UNL1       -0.2702
      3 N         142.7253  138.3519  156.8000 N.am    1  UNL1       -0.2763
      4 C         142.8017  139.8349  156.5880 C.3     1  UNL1        0.0937
      5 C         142.7484  140.7643  157.7641 C.3     1  UNL1        0.0223
      6 C         142.6185  140.2108  159.1522 C.3     1  UNL1        0.0148
      7 C         142.5421  138.7279  159.3642 C.3     1  UNL1        0.0223
      8 C         142.5955  137.7985  158.1881 C.3     1  UNL1        0.0937
      9 C         142.6950  141.6939  158.9402 C.3     1  UNL1        0.0712
     10 C         142.6416  142.6233  160.1163 C.2     1  UNL1        0.1899
     11 O         142.7181  144.1064  159.9043 O.2     1  UNL1       -0.2898
     12 C         142.5118  142.0698  161.5044 C.ar    1  UNL1        0.1099
     13 C         142.4353  140.5869  161.7164 C.ar    1  UNL1        0.0188
     14 C         142.3111  140.3350  163.1899 C.ar    1  UNL1        0.1174
     15 N         142.3108  141.6624  163.8885 N.ar    1  UNL1       -0.1680
     16 N         142.4348  142.7346  162.8469 N.ar    1  UNL1       -0.2503
     17 C         142.4887  139.6574  160.5403 C.3     1  UNL1        0.0301
     18 C         144.5882  130.1589  157.9882 C.3     1  UNL1        0.1367
     19 C         144.0118  131.4210  157.4184 C.2     1  UNL1        0.3518
     20 N         142.7418  131.5321  156.6280 N.2     1  UNL1       -0.0350
     21 C         142.5494  132.9735  156.2600 C.2     1  UNL1        0.2317
     22 C         141.4747  133.6767  155.4850 C.2     1  UNL1        0.0500
     23 C         141.5511  135.1597  155.2730 C.2     1  UNL1        0.0046
     24 C         142.7022  135.9395  155.8359 C.2     1  UNL1        0.0399
     25 C         143.7769  135.2362  156.6109 C.3     1  UNL1        0.1086
     26 C         143.7005  133.7533  156.8229 C.2     1  UNL1        0.2176
     27 N         144.6043  132.7938  157.5388 N.2     1  UNL1       -0.0389
     28 C         142.4749  144.2121  163.1027 C.3     1  UNL1        0.1054
     29 C         143.7933  144.9191  163.2105 C.3     1  UNL1        0.0263
     30 C         141.1964  144.9825  163.2508 C.3     1  UNL1        0.0263
@<TRIPOS>BOND
     1    18    19    1
     2    19    20    2
     3    20    21    1
     4    21    22    2
     5    22    23    1
     6    23    24    2
     7    24     1    1
     8     1     2    2
     9     1     3   am
    10     3     4    1
    11     4     5    1
    12     5     6    1
    13     6     7    1
    14     7     8    1
    15     6     9    1
    16     9    10    1
    17    10    11    2
    18    10    12    1
    19    12    13   ar
    20    13    14   ar
    21    14    15   ar
    22    15    16   ar
    23    16    28    1
    24    28    29    1
    25    28    30    1
    26    13    17    1
    27    24    25    1
    28    25    26    1
    29    26    27    2
    30    27    19    1
    31    26    21    1
    32     8     3    1
    33    16    12   ar
    34    17     6    1
@<TRIPOS>MOLECULE
*****
 30 34 0 0 0
SMALL
GASTEIGER

@<TRIPOS>ATOM
      1 C         140.9722  138.3298  163.2489 C.2     1  UNL1        0.2455
      2 O         140.7807  136.8791  162.9192 O.2     1  UNL1       -0.2702
      3 N         140.7672  139.3729  162.1905 N.am    1  UNL1       -0.2763
      4 C         140.3707  138.9652  160.8025 C.3     1  UNL1        0.0937
      5 C         140.1658  140.0082  159.7442 C.3     1  UNL1        0.0223
      6 C         140.3572  141.4589  160.0739 C.3     1  UNL1        0.0148
      7 C         140.7537  141.8666  161.4619 C.3     1  UNL1        0.0223
      8 C         140.9587  140.8236  162.5202 C.3     1  UNL1        0.0937
      9 C         139.9608  141.0513  158.6858 C.3     1  UNL1        0.0712
     10 C         139.7558  142.0943  157.6275 C.2     1  UNL1        0.1899
     11 O         139.3593  141.6866  156.2395 O.2     1  UNL1       -0.2898
     12 C         139.9473  143.5450  157.9572 C.ar    1  UNL1        0.1099
     13 C         140.3437  143.9527  159.3452 C.ar    1  UNL1        0.0188
     14 C         140.4589  145.4480  159.3741 C.ar    1  UNL1        0.1174
     15 N         140.1335  145.9645  158.0039 N.ar    1  UNL1       -0.1680
     16 N         139.8174  144.7884  157.1283 N.ar    1  UNL1       -0.2503
     17 C         140.5487  142.9097  160.4036 C.3     1  UNL1        0.0301
     18 C         140.4871  140.8138  170.6797 C.3     1  UNL1        0.1367
     19 C         140.8625  140.3238  169.3126 C.2     1  UNL1        0.3518
     20 N         142.2505  140.0087  168.8392 N.2     1  UNL1       -0.0350
     21 C         142.1616  139.5529  167.4129 C.2     1  UNL1        0.2317
     22 C         143.2081  139.1119  166.4331 C.2     1  UNL1        0.0500
     23 C         142.8117  138.7041  165.0450 C.2     1  UNL1        0.0046
     24 C         141.3687  138.7375  164.6368 C.2     1  UNL1        0.0399
     25 C         140.3221  139.1786  165.6168 C.3     1  UNL1        0.1086
     26 C         140.7186  139.5863  167.0047 C.2     1  UNL1        0.2176
     27 N         139.9157  140.0627  168.1788 N.2     1  UNL1       -0.0389
     28 C         139.4379  144.8455  155.6781 C.3     1  UNL1        0.1054
     29 C         140.4988  144.7591  154.6213 C.3     1  UNL1        0.0263
     30 C         137.9974  144.9891  155.2849 C.3     1  UNL1        0.0263
@<TRIPOS>BOND
     1    18    19    1
     2    19    20    2
     3    20    21    1
     4    21    22    2
     5    22    23    1
     6    23    24    2
     7    24     1    1
     8     1     2    2
     9     1     3   am
    10     3     4    1
    11     4     5    1
    12     5     6    1
    13     6     7    1
    14     7     8    1
    15     6     9    1
    16     9    10    1
    17    10    11    2
    18    10    12    1
    19    12    13   ar
    20    13    14   ar
    21    14    15   ar
    22    15    16   ar
    23    16    28    1
    24    28    29    1
    25    28    30    1
    26    13    17    1
    27    24    25    1
    28    25    26    1
    29    26    27    2
    30    27    19    1
    31    26    21    1
    32     8     3    1
    33    16    12   ar
    34    17     6    1
@<TRIPOS>MOLECULE
*****
 30 34 0 0 0
SMALL
GASTEIGER

@<TRIPOS>ATOM
      1 C         141.6729  137.7496  155.3041 C.2     1  UNL1        0.2455
      2 O         140.5620  138.1538  154.3808 O.2     1  UNL1       -0.2702
      3 N         141.9455  136.2967  155.5585 N.am    1  UNL1       -0.2763
      4 C         141.1072  135.2480  154.8896 C.3     1  UNL1        0.0937
      5 C         141.3799  133.7951  155.1440 C.3     1  UNL1        0.0223
      6 C         142.4907  133.3909  156.0674 C.3     1  UNL1        0.0148
      7 C         143.3290  134.4396  156.7363 C.3     1  UNL1        0.0223
      8 C         143.0564  135.8925  156.4819 C.3     1  UNL1        0.0937
      9 C         141.6525  132.3421  155.3984 C.3     1  UNL1        0.0712
     10 C         141.9251  130.8892  155.6529 C.2     1  UNL1        0.1899
     11 O         141.0868  129.8404  154.9839 O.2     1  UNL1       -0.2898
     12 C         143.0360  130.4851  156.5762 C.ar    1  UNL1        0.1099
     13 C         143.8743  131.5338  157.2451 C.ar    1  UNL1        0.0188
     14 C         144.8930  130.8382  158.0985 C.ar    1  UNL1        0.1174
     15 N         144.6843  129.3595  157.9570 N.ar    1  UNL1       -0.1680
     16 N         143.5366  129.1413  157.0162 N.ar    1  UNL1       -0.2503
     17 C         143.6016  132.9867  156.9907 C.3     1  UNL1        0.0301
     18 C         147.5252  142.7868  156.7185 C.3     1  UNL1        0.1367
     19 C         146.2988  141.9234  156.6960 C.2     1  UNL1        0.3518
     20 N         145.2158  141.9029  157.7337 N.2     1  UNL1       -0.0350
     21 C         144.1877  140.8958  157.3109 C.2     1  UNL1        0.2317
     22 C         142.9018  140.4491  157.9409 C.2     1  UNL1        0.0500
     23 C         142.0635  139.4003  157.2720 C.2     1  UNL1        0.0046
     24 C         142.5111  138.7983  155.9731 C.2     1  UNL1        0.0399
     25 C         143.7971  139.2450  155.3431 C.3     1  UNL1        0.1086
     26 C         144.6353  140.2937  156.0120 C.2     1  UNL1        0.2176
     27 N         145.9400  140.9289  155.6320 N.2     1  UNL1       -0.0389
     28 C         142.9862  127.8125  156.5901 C.3     1  UNL1        0.1054
     29 C         143.5074  127.1474  155.3508 C.3     1  UNL1        0.0263
     30 C         141.9146  127.1489  157.4034 C.3     1  UNL1        0.0263
@<TRIPOS>BOND
     1    18    19    1
     2    19    20    2
     3    20    21    1
     4    21    22    2
     5    22    23    1
     6    23    24    2
     7    24     1    1
     8     1     2    2
     9     1     3   am
    10     3     4    1
    11     4     5    1
    12     5     6    1
    13     6     7    1
    14     7     8    1
    15     6     9    1
    16     9    10    1
    17    10    11    2
    18    10    12    1
    19    12    13   ar
    20    13    14   ar
    21    14    15   ar
    22    15    16   ar
    23    16    28    1
    24    28    29    1
    25    28    30    1
    26    13    17    1
    27    24    25    1
    28    25    26    1
    29    26    27    2
    30    27    19    1
    31    26    21    1
    32     8     3    1
    33    16    12   ar
    34    17     6    1
