@<TRIPOS>MOLECULE
*****
 20 22 0 0 0
SMALL
GASTEIGER

@<TRIPOS>ATOM
      1 N         140.7202  138.5709  161.9562 N.3     1  UNL1       -0.2711
      2 C         141.5309  139.3291  162.9651 C.3     1  UNL1        0.0939
      3 C         141.0037  139.5266  164.3554 C.3     1  UNL1        0.1123
      4 N         139.6657  138.9658  164.7369 N.am    1  UNL1       -0.2612
      5 C         139.1386  139.1633  166.1273 C.2     1  UNL1        0.3077
      6 O         137.8007  138.6025  166.5087 O.2     1  UNL1       -0.2523
      7 N         139.9492  139.9216  167.1361 N.am    1  UNL1       -0.2558
      8 C         139.5546  140.1976  168.5567 C.3     1  UNL1        0.1217
      9 C         140.6584  140.9836  169.2001 C.ar    1  UNL1       -0.0046
     10 C         140.8220  141.5354  170.5852 C.ar    1  UNL1       -0.0029
     11 C         142.0625  142.2969  170.9474 C.ar    1  UNL1       -0.0003
     12 C         143.1393  142.5067  169.9245 C.ar    1  UNL1       -0.0003
     13 C         142.9756  141.9549  168.5393 C.ar    1  UNL1       -0.0029
     14 C         141.7352  141.1934  168.1771 C.ar    1  UNL1       -0.0046
     15 C         141.2969  140.5370  166.9015 C.3     1  UNL1        0.1217
     16 C         138.8550  138.2075  163.7281 C.3     1  UNL1        0.1123
     17 C         139.3823  138.0101  162.3377 C.3     1  UNL1        0.0939
     18 C         140.4069  138.7555  159.3837 C.3     1  UNL1        0.0173
     19 C         141.2474  138.3734  160.5659 C.3     1  UNL1        0.0577
     20 C         142.6152  137.7939  160.3577 C.3     1  UNL1        0.0173
@<TRIPOS>BOND
     1    18    19    1
     2    19    20    1
     3    19     1    1
     4     1     2    1
     5     2     3    1
     6     3     4    1
     7     4     5   am
     8     5     6    2
     9     5     7   am
    10     7     8    1
    11     8     9    1
    12     9    10   ar
    13    10    11   ar
    14    11    12   ar
    15    12    13   ar
    16    13    14   ar
    17    14    15    1
    18     4    16    1
    19    16    17    1
    20    17     1    1
    21    15     7    1
    22    14     9   ar
@<TRIPOS>MOLECULE
*****
 20 22 0 0 0
SMALL
GASTEIGER

@<TRIPOS>ATOM
      1 N         139.7375  144.0718  162.2056 N.3     1  UNL1       -0.2711
      2 C         140.3437  144.2072  163.5709 C.3     1  UNL1        0.0939
      3 C         140.1119  143.1440  164.6033 C.3     1  UNL1        0.1123
      4 N         139.2738  141.9454  164.2704 N.am    1  UNL1       -0.2612
      5 C         139.0419  140.8822  165.3028 C.2     1  UNL1        0.3077
      6 O         138.2038  139.6836  164.9699 O.2     1  UNL1       -0.2523
      7 N         139.6482  141.0176  166.6681 N.am    1  UNL1       -0.2558
      8 C         139.5048  140.0408  167.7974 C.3     1  UNL1        0.1217
      9 C         140.2723  140.5731  168.9711 C.ar    1  UNL1       -0.0046
     10 C         140.4885  140.0375  170.3554 C.ar    1  UNL1       -0.0029
     11 C         141.3224  140.8077  171.3358 C.ar    1  UNL1       -0.0003
     12 C         141.9401  142.1136  170.9320 C.ar    1  UNL1       -0.0003
     13 C         141.7239  142.6492  169.5477 C.ar    1  UNL1       -0.0029
     14 C         140.8900  141.8790  168.5673 C.ar    1  UNL1       -0.0046
     15 C         140.5043  142.1537  167.1440 C.3     1  UNL1        0.1217
     16 C         138.6675  141.8099  162.9051 C.3     1  UNL1        0.1123
     17 C         138.8994  142.8732  161.8727 C.3     1  UNL1        0.0939
     18 C         140.5571  144.7721  159.8418 C.3     1  UNL1        0.0173
     19 C         139.9693  145.1350  161.1732 C.3     1  UNL1        0.0577
     20 C         139.6134  146.5612  161.4723 C.3     1  UNL1        0.0173
@<TRIPOS>BOND
     1    18    19    1
     2    19    20    1
     3    19     1    1
     4     1     2    1
     5     2     3    1
     6     3     4    1
     7     4     5   am
     8     5     6    2
     9     5     7   am
    10     7     8    1
    11     8     9    1
    12     9    10   ar
    13    10    11   ar
    14    11    12   ar
    15    12    13   ar
    16    13    14   ar
    17    14    15    1
    18     4    16    1
    19    16    17    1
    20    17     1    1
    21    15     7    1
    22    14     9   ar
@<TRIPOS>MOLECULE
*****
 20 22 0 0 0
SMALL
GASTEIGER

@<TRIPOS>ATOM
      1 N         140.4177  145.1483  159.4097 N.3     1  UNL1       -0.2711
      2 C         140.3197  143.6896  159.7452 C.3     1  UNL1        0.0939
      3 C         139.8959  143.2629  161.1193 C.3     1  UNL1        0.1123
      4 N         139.5700  144.2949  162.1580 N.am    1  UNL1       -0.2612
      5 C         139.1462  143.8681  163.5321 C.2     1  UNL1        0.3077
      6 O         138.8203  144.9001  164.5707 O.2     1  UNL1       -0.2523
      7 N         139.0483  142.4094  163.8676 N.am    1  UNL1       -0.2558
      8 C         138.6405  141.8347  165.1918 C.3     1  UNL1        0.1217
      9 C         138.6811  140.3394  165.0804 C.ar    1  UNL1       -0.0046
     10 C         138.3799  139.2509  166.0675 C.ar    1  UNL1       -0.0029
     11 C         138.5115  137.8129  165.6615 C.ar    1  UNL1       -0.0003
     12 C         138.9443  137.4634  164.2684 C.ar    1  UNL1       -0.0003
     13 C         139.2456  138.5520  163.2814 C.ar    1  UNL1       -0.0029
     14 C         139.1140  139.9899  163.6874 C.ar    1  UNL1       -0.0046
     15 C         139.3409  141.2693  162.9378 C.3     1  UNL1        0.1217
     16 C         139.6680  145.7536  161.8225 C.3     1  UNL1        0.1123
     17 C         140.0918  146.1803  160.4483 C.3     1  UNL1        0.0939
     18 C         142.2102  145.2261  157.5306 C.3     1  UNL1        0.0173
     19 C         140.8415  145.5750  158.0355 C.3     1  UNL1        0.0577
     20 C         139.8966  146.3506  157.1662 C.3     1  UNL1        0.0173
@<TRIPOS>BOND
     1    18    19    1
     2    19    20    1
     3    19     1    1
     4     1     2    1
     5     2     3    1
     6     3     4    1
     7     4     5   am
     8     5     6    2
     9     5     7   am
    10     7     8    1
    11     8     9    1
    12     9    10   ar
    13    10    11   ar
    14    11    12   ar
    15    12    13   ar
    16    13    14   ar
    17    14    15    1
    18     4    16    1
    19    16    17    1
    20    17     1    1
    21    15     7    1
    22    14     9   ar
@<TRIPOS>MOLECULE
*****
 20 22 0 0 0
SMALL
GASTEIGER

@<TRIPOS>ATOM
      1 N         140.6555  142.0535  168.6585 N.3     1  UNL1       -0.2711
      2 C         140.9462  142.1648  167.1911 C.3     1  UNL1        0.0939
      3 C         140.3831  141.1544  166.2362 C.3     1  UNL1        0.1123
      4 N         139.5292  140.0326  166.7487 N.am    1  UNL1       -0.2612
      5 C         138.9660  139.0221  165.7938 C.2     1  UNL1        0.3077
      6 O         138.1122  137.9004  166.3062 O.2     1  UNL1       -0.2523
      7 N         139.2567  139.1334  164.3264 N.am    1  UNL1       -0.2558
      8 C         138.7657  138.2029  163.2573 C.3     1  UNL1        0.1217
      9 C         139.2950  138.6892  161.9407 C.ar    1  UNL1       -0.0046
     10 C         139.1377  138.1701  160.5422 C.ar    1  UNL1       -0.0029
     11 C         139.7985  138.8820  159.3992 C.ar    1  UNL1       -0.0003
     12 C         140.6166  140.1130  159.6547 C.ar    1  UNL1       -0.0003
     13 C         140.7739  140.6321  161.0531 C.ar    1  UNL1       -0.0029
     14 C         140.1131  139.9202  162.1961 C.ar    1  UNL1       -0.0046
     15 C         140.0894  140.1948  163.6706 C.3     1  UNL1        0.1217
     16 C         139.2385  139.9212  168.2160 C.3     1  UNL1        0.1123
     17 C         139.8017  140.9318  169.1709 C.3     1  UNL1        0.0939
     18 C         140.3844  144.2327  170.0469 C.3     1  UNL1        0.0173
     19 C         141.2187  143.0640  169.6134 C.3     1  UNL1        0.0577
     20 C         142.6162  142.9057  170.1348 C.3     1  UNL1        0.0173
@<TRIPOS>BOND
     1    18    19    1
     2    19    20    1
     3    19     1    1
     4     1     2    1
     5     2     3    1
     6     3     4    1
     7     4     5   am
     8     5     6    2
     9     5     7   am
    10     7     8    1
    11     8     9    1
    12     9    10   ar
    13    10    11   ar
    14    11    12   ar
    15    12    13   ar
    16    13    14   ar
    17    14    15    1
    18     4    16    1
    19    16    17    1
    20    17     1    1
    21    15     7    1
    22    14     9   ar
@<TRIPOS>MOLECULE
*****
 20 22 0 0 0
SMALL
GASTEIGER

@<TRIPOS>ATOM
      1 N         140.5238  142.1469  168.6044 N.3     1  UNL1       -0.2711
      2 C         140.4503  142.5977  167.1756 C.3     1  UNL1        0.0939
      3 C         139.8551  141.6966  166.1346 C.3     1  UNL1        0.1123
      4 N         139.3334  140.3447  166.5223 N.am    1  UNL1       -0.2612
      5 C         138.7383  139.4436  165.4812 C.2     1  UNL1        0.3077
      6 O         138.2166  138.0918  165.8689 O.2     1  UNL1       -0.2523
      7 N         138.6648  139.8944  164.0524 N.am    1  UNL1       -0.2558
      8 C         138.0999  139.1071  162.9074 C.3     1  UNL1        0.1217
      9 C         138.2293  139.9377  161.6651 C.ar    1  UNL1       -0.0046
     10 C         137.8432  139.6777  160.2392 C.ar    1  UNL1       -0.0029
     11 C         138.1020  140.7185  159.1905 C.ar    1  UNL1       -0.0003
     12 C         138.7468  142.0193  159.5677 C.ar    1  UNL1       -0.0003
     13 C         139.1328  142.2792  160.9937 C.ar    1  UNL1       -0.0029
     14 C         138.8741  141.2385  162.0424 C.ar    1  UNL1       -0.0046
     15 C         139.1432  141.2117  163.5178 C.3     1  UNL1        0.1217
     16 C         139.4069  139.8939  167.9510 C.3     1  UNL1        0.1123
     17 C         140.0021  140.7950  168.9921 C.3     1  UNL1        0.0939
     18 C         142.4845  142.7597  170.1950 C.3     1  UNL1        0.0173
     19 C         141.1189  143.0480  169.6455 C.3     1  UNL1        0.0577
     20 C         140.3485  144.2375  170.1370 C.3     1  UNL1        0.0173
@<TRIPOS>BOND
     1    18    19    1
     2    19    20    1
     3    19     1    1
     4     1     2    1
     5     2     3    1
     6     3     4    1
     7     4     5   am
     8     5     6    2
     9     5     7   am
    10     7     8    1
    11     8     9    1
    12     9    10   ar
    13    10    11   ar
    14    11    12   ar
    15    12    13   ar
    16    13    14   ar
    17    14    15    1
    18     4    16    1
    19    16    17    1
    20    17     1    1
    21    15     7    1
    22    14     9   ar
@<TRIPOS>MOLECULE
*****
 20 22 0 0 0
SMALL
GASTEIGER

@<TRIPOS>ATOM
      1 N         141.6790  144.5305  159.9505 N.3     1  UNL1       -0.2711
      2 C         142.2132  143.4591  160.8542 C.3     1  UNL1        0.0939
      3 C         141.6958  143.3338  162.2565 C.3     1  UNL1        0.1123
      4 N         140.6441  144.2801  162.7552 N.am    1  UNL1       -0.2612
      5 C         140.1267  144.1548  164.1575 C.2     1  UNL1        0.3077
      6 O         139.0750  145.1010  164.6562 O.2     1  UNL1       -0.2523
      7 N         140.6609  143.0833  165.0612 N.am    1  UNL1       -0.2558
      8 C         140.2420  142.8370  166.4803 C.3     1  UNL1        0.1217
      9 C         141.0300  141.6715  167.0006 C.ar    1  UNL1       -0.0046
     10 C         141.0397  140.9806  168.3319 C.ar    1  UNL1       -0.0029
     11 C         141.9553  139.8157  168.5657 C.ar    1  UNL1       -0.0003
     12 C         142.8612  139.3417  167.4681 C.ar    1  UNL1       -0.0003
     13 C         142.8515  140.0326  166.1368 C.ar    1  UNL1       -0.0029
     14 C         141.9359  141.1975  165.9030 C.ar    1  UNL1       -0.0046
     15 C         141.7078  142.0701  164.7044 C.3     1  UNL1        0.1217
     16 C         140.1099  145.3515  161.8516 C.3     1  UNL1        0.1123
     17 C         140.6274  145.4767  160.4492 C.3     1  UNL1        0.0939
     18 C         143.0690  143.5804  157.9718 C.3     1  UNL1        0.0173
     19 C         142.1965  144.6558  158.5481 C.3     1  UNL1        0.0577
     20 C         141.8414  145.8564  157.7221 C.3     1  UNL1        0.0173
@<TRIPOS>BOND
     1    18    19    1
     2    19    20    1
     3    19     1    1
     4     1     2    1
     5     2     3    1
     6     3     4    1
     7     4     5   am
     8     5     6    2
     9     5     7   am
    10     7     8    1
    11     8     9    1
    12     9    10   ar
    13    10    11   ar
    14    11    12   ar
    15    12    13   ar
    16    13    14   ar
    17    14    15    1
    18     4    16    1
    19    16    17    1
    20    17     1    1
    21    15     7    1
    22    14     9   ar
@<TRIPOS>MOLECULE
*****
 20 22 0 0 0
SMALL
GASTEIGER

@<TRIPOS>ATOM
      1 N         139.6226  143.9282  159.1050 N.3     1  UNL1       -0.2711
      2 C         139.1638  142.8599  160.0527 C.3     1  UNL1        0.0939
      3 C         139.5611  142.9181  161.4979 C.3     1  UNL1        0.1123
      4 N         140.4174  144.0448  161.9955 N.am    1  UNL1       -0.2612
      5 C         140.8148  144.1030  163.4407 C.2     1  UNL1        0.3077
      6 O         141.6710  145.2297  163.9383 O.2     1  UNL1       -0.2523
      7 N         140.3559  143.0347  164.3884 N.am    1  UNL1       -0.2558
      8 C         140.6717  142.9602  165.8529 C.3     1  UNL1        0.1217
      9 C         140.0117  141.7327  166.4076 C.ar    1  UNL1       -0.0046
     10 C         139.9762  141.1496  167.7891 C.ar    1  UNL1       -0.0029
     11 C         139.2169  139.8823  168.0489 C.ar    1  UNL1       -0.0003
     12 C         138.4932  139.1982  166.9273 C.ar    1  UNL1       -0.0003
     13 C         138.5287  139.7814  165.5458 C.ar    1  UNL1       -0.0029
     14 C         139.2879  141.0486  165.2859 C.ar    1  UNL1       -0.0046
     15 C         139.5007  141.8533  164.0380 C.3     1  UNL1        0.1217
     16 C         140.8763  145.1131  161.0479 C.3     1  UNL1        0.1123
     17 C         140.4789  145.0548  159.6026 C.3     1  UNL1        0.0939
     18 C         138.1943  142.8799  157.2048 C.3     1  UNL1        0.0173
     19 C         139.2252  143.8699  157.6598 C.3     1  UNL1        0.0577
     20 C         139.8588  144.8016  156.6696 C.3     1  UNL1        0.0173
@<TRIPOS>BOND
     1    18    19    1
     2    19    20    1
     3    19     1    1
     4     1     2    1
     5     2     3    1
     6     3     4    1
     7     4     5   am
     8     5     6    2
     9     5     7   am
    10     7     8    1
    11     8     9    1
    12     9    10   ar
    13    10    11   ar
    14    11    12   ar
    15    12    13   ar
    16    13    14   ar
    17    14    15    1
    18     4    16    1
    19    16    17    1
    20    17     1    1
    21    15     7    1
    22    14     9   ar
@<TRIPOS>MOLECULE
*****
 20 22 0 0 0
SMALL
GASTEIGER

@<TRIPOS>ATOM
      1 N         140.9851  144.1268  161.9533 N.3     1  UNL1       -0.2711
      2 C         140.9397  144.2789  163.4449 C.3     1  UNL1        0.0939
      3 C         141.3545  143.1396  164.3280 C.3     1  UNL1        0.1123
      4 N         141.8148  141.8481  163.7195 N.am    1  UNL1       -0.2612
      5 C         142.2296  140.7088  164.6026 C.2     1  UNL1        0.3077
      6 O         142.6899  139.4174  163.9941 O.2     1  UNL1       -0.2523
      7 N         142.1842  140.8610  166.0942 N.am    1  UNL1       -0.2558
      8 C         142.5662  139.8150  167.0992 C.3     1  UNL1        0.1217
      9 C         142.3668  140.3934  168.4688 C.ar    1  UNL1       -0.0046
     10 C         142.5801  139.8234  169.8398 C.ar    1  UNL1       -0.0029
     11 C         142.2881  140.6569  171.0522 C.ar    1  UNL1       -0.0003
     12 C         141.7828  142.0603  170.8936 C.ar    1  UNL1       -0.0003
     13 C         141.5696  142.6303  169.5226 C.ar    1  UNL1       -0.0029
     14 C         141.8616  141.7968  168.3102 C.ar    1  UNL1       -0.0046
     15 C         141.7487  142.0858  166.8426 C.3     1  UNL1        0.1217
     16 C         141.8603  141.6960  162.2279 C.3     1  UNL1        0.1123
     17 C         141.4454  142.8353  161.3448 C.3     1  UNL1        0.0939
     18 C         141.0435  145.3236  159.6480 C.3     1  UNL1        0.0173
     19 C         140.5703  145.2662  161.0702 C.3     1  UNL1        0.0577
     20 C         139.6822  146.3481  161.6094 C.3     1  UNL1        0.0173
@<TRIPOS>BOND
     1    18    19    1
     2    19    20    1
     3    19     1    1
     4     1     2    1
     5     2     3    1
     6     3     4    1
     7     4     5   am
     8     5     6    2
     9     5     7   am
    10     7     8    1
    11     8     9    1
    12     9    10   ar
    13    10    11   ar
    14    11    12   ar
    15    12    13   ar
    16    13    14   ar
    17    14    15    1
    18     4    16    1
    19    16    17    1
    20    17     1    1
    21    15     7    1
    22    14     9   ar
@<TRIPOS>MOLECULE
*****
 20 22 0 0 0
SMALL
GASTEIGER

@<TRIPOS>ATOM
      1 N         139.5610  140.2030  167.4316 N.3     1  UNL1       -0.2711
      2 C         140.0471  141.3262  166.5642 C.3     1  UNL1        0.0939
      3 C         139.7026  141.3497  165.1045 C.3     1  UNL1        0.1123
      4 N         138.8720  140.2500  164.5121 N.am    1  UNL1       -0.2612
      5 C         138.5275  140.2735  163.0524 C.2     1  UNL1        0.3077
      6 O         137.6969  139.1739  162.4601 O.2     1  UNL1       -0.2523
      7 N         139.0136  141.3967  162.1851 N.am    1  UNL1       -0.2558
      8 C         138.7505  141.5542  160.7168 C.3     1  UNL1        0.1217
      9 C         139.4225  142.8144  160.2580 C.ar    1  UNL1       -0.0046
     10 C         139.5042  143.4764  158.9145 C.ar    1  UNL1       -0.0029
     11 C         140.2644  144.7597  158.7558 C.ar    1  UNL1       -0.0003
     12 C         140.9429  145.3810  159.9405 C.ar    1  UNL1       -0.0003
     13 C         140.8611  144.7190  161.2840 C.ar    1  UNL1       -0.0029
     14 C         140.1009  143.4357  161.4428 C.ar    1  UNL1       -0.0046
     15 C         139.8482  142.5595  162.6338 C.3     1  UNL1        0.1217
     16 C         138.3859  139.1269  165.3794 C.3     1  UNL1        0.1123
     17 C         138.7304  139.1034  166.8392 C.3     1  UNL1        0.0939
     18 C         138.8441  140.4472  169.9168 C.3     1  UNL1        0.0173
     19 C         139.9055  140.1795  168.8913 C.3     1  UNL1        0.0577
     20 C         141.3115  139.8884  169.3255 C.3     1  UNL1        0.0173
@<TRIPOS>BOND
     1    18    19    1
     2    19    20    1
     3    19     1    1
     4     1     2    1
     5     2     3    1
     6     3     4    1
     7     4     5   am
     8     5     6    2
     9     5     7   am
    10     7     8    1
    11     8     9    1
    12     9    10   ar
    13    10    11   ar
    14    11    12   ar
    15    12    13   ar
    16    13    14   ar
    17    14    15    1
    18     4    16    1
    19    16    17    1
    20    17     1    1
    21    15     7    1
    22    14     9   ar
