@<TRIPOS>MOLECULE
*****
 34 39 0 0 0
SMALL
GASTEIGER

@<TRIPOS>ATOM
      1 N         143.0319  138.9215  165.9267 N.3     1  UNL1       -0.2720
      2 C         141.9859  138.0462  165.3023 C.3     1  UNL1        0.0768
      3 C         141.7293  137.7883  163.8470 C.3     1  UNL1        0.0434
      4 C         142.4552  138.3419  162.6569 C.ar    1  UNL1       -0.0230
      5 C         141.8760  137.8261  161.3730 C.ar    1  UNL1        0.0178
      6 C         142.4586  138.2586  160.0601 C.ar    1  UNL1        0.1182
      7 N         142.1015  137.9199  158.6432 N.ar    1  UNL1       -0.2121
      8 C         143.0426  138.6588  157.7386 C.ar    1  UNL1        0.2057
      9 O         143.9814  139.4542  158.5965 O.2     1  UNL1       -0.4384
     10 C         143.6205  139.2069  160.0312 C.ar    1  UNL1        0.1640
     11 C         144.1997  139.7227  161.3151 C.ar    1  UNL1        0.0346
     12 C         143.6171  139.2902  162.6280 C.ar    1  UNL1       -0.0216
     13 C         144.3400  139.9191  163.7821 C.3     1  UNL1        0.0434
     14 C         144.0795  139.7549  165.2502 C.3     1  UNL1        0.0768
     15 C         143.0299  138.9696  167.4259 C.3     1  UNL1        0.0730
     16 C         142.4219  140.1414  168.1379 C.3     1  UNL1        0.0294
     17 C         141.3622  139.9207  169.1764 C.3     1  UNL1        0.0666
     18 S         139.9665  140.4173  168.9410 S.3     1  UNL1       -0.0756
     19 C         138.4029  139.9131  165.4244 C.ar    1  UNL1        0.2029
     20 N         137.7420  138.8097  166.1965 N.ar    1  UNL1       -0.1250
     21 N         138.2473  138.8644  167.6077 N.ar    1  UNL1       -0.1220
     22 C         139.2205  140.0015  167.7079 C.ar    1  UNL1        0.1933
     23 N         139.3167  140.6495  166.3586 N.ar    1  UNL1       -0.2860
     24 C         140.1758  141.8273  166.0054 C.3     1  UNL1        0.1341
     25 C         138.4996  137.7683  162.9667 C.3     1  UNL1        0.0556
     26 C         138.2323  139.2392  162.8434 C.ar    1  UNL1        0.1001
     27 N         137.9624  139.9825  161.5688 N.ar    1  UNL1       -0.2085
     28 C         137.7513  141.4276  161.9107 C.ar    1  UNL1        0.2849
     29 O         137.8906  141.5775  163.3967 O.2     1  UNL1       -0.4283
     30 C         138.1878  140.2250  163.9732 C.ar    1  UNL1        0.1964
     31 C         143.0445  138.6106  156.2394 C.3     1  UNL1        0.0853
     32 C         143.2289  137.3011  155.5313 C.3     1  UNL1        0.0092
     33 C         143.9777  136.0132  155.3562 C.3     1  UNL1        0.0005
     34 C         142.7996  136.3210  154.4802 C.3     1  UNL1        0.0005
@<TRIPOS>BOND
     1    25    26    1
     2    26    27   ar
     3    27    28   ar
     4    28    29   ar
     5    29    30   ar
     6    30    19    1
     7    19    20   ar
     8    20    21   ar
     9    21    22   ar
    10    22    18    1
    11    18    17    1
    12    17    16    1
    13    16    15    1
    14    15     1    1
    15     1     2    1
    16     2     3    1
    17     3     4    1
    18     4     5   ar
    19     5     6   ar
    20     6     7   ar
    21     7     8   ar
    22     8    31    1
    23    31    32    1
    24    32    33    1
    25    33    34    1
    26     8     9   ar
    27     9    10   ar
    28    10    11   ar
    29    11    12   ar
    30    12    13    1
    31    13    14    1
    32    22    23   ar
    33    23    24    1
    34    30    26   ar
    35    23    19   ar
    36    14     1    1
    37    12     4   ar
    38    10     6   ar
    39    34    32    1
@<TRIPOS>MOLECULE
*****
 34 39 0 0 0
SMALL
GASTEIGER

@<TRIPOS>ATOM
      1 N         139.5139  139.4898  159.7180 N.3     1  UNL1       -0.2720
      2 C         139.9075  140.8277  160.2706 C.3     1  UNL1        0.0768
      3 C         139.9779  141.2634  161.7043 C.3     1  UNL1        0.0434
      4 C         139.6720  140.4690  162.9392 C.ar    1  UNL1       -0.0230
      5 C         139.8711  141.2873  164.1805 C.ar    1  UNL1        0.0178
      6 C         139.6184  140.6793  165.5282 C.ar    1  UNL1        0.1182
      7 N         139.7286  141.2354  166.9169 N.ar    1  UNL1       -0.2121
      8 C         139.3449  140.1528  167.8816 C.ar    1  UNL1        0.2057
      9 O         138.9977  138.9275  167.0892 O.2     1  UNL1       -0.4384
     10 C         139.1667  139.2529  165.6348 C.ar    1  UNL1        0.1640
     11 C         138.9676  138.4345  164.3934 C.ar    1  UNL1        0.0346
     12 C         139.2203  139.0426  163.0457 C.ar    1  UNL1       -0.0216
     13 C         138.9628  138.0584  161.9434 C.3     1  UNL1        0.0434
     14 C         139.0935  138.2575  160.4625 C.3     1  UNL1        0.0768
     15 C         139.5449  139.3685  158.2232 C.3     1  UNL1        0.0730
     16 C         139.8679  138.0505  157.5842 C.3     1  UNL1        0.0294
     17 C         141.2980  137.6400  157.3931 C.3     1  UNL1        0.0666
     18 S         142.4049  138.5741  157.7833 S.3     1  UNL1       -0.0756
     19 C         143.8345  139.2939  161.3193 C.ar    1  UNL1        0.2029
     20 N         143.6658  137.8043  161.3725 N.ar    1  UNL1       -0.1250
     21 N         143.1098  137.3534  160.0544 N.ar    1  UNL1       -0.1220
     22 C         142.9348  138.5643  159.1865 C.ar    1  UNL1        0.1933
     23 N         143.3826  139.7635  159.9683 N.ar    1  UNL1       -0.2860
     24 C         143.3792  141.1833  159.4841 C.3     1  UNL1        0.1341
     25 C         142.9135  139.1888  164.4483 C.3     1  UNL1        0.0556
     26 C         143.9389  140.1132  163.8616 C.ar    1  UNL1        0.1001
     27 N         144.7210  141.1515  164.6100 N.ar    1  UNL1       -0.2085
     28 C         145.6277  141.8414  163.6344 C.ar    1  UNL1        0.2849
     29 O         145.4059  141.2296  162.2829 O.2     1  UNL1       -0.4283
     30 C         144.3622  140.1614  162.4233 C.ar    1  UNL1        0.1964
     31 C         139.3140  140.2742  169.3764 C.3     1  UNL1        0.0853
     32 C         139.9200  141.4730  170.0442 C.3     1  UNL1        0.0092
     33 C         140.8913  142.0618  171.0238 C.3     1  UNL1        0.0005
     34 C         139.9982  142.9604  170.2210 C.3     1  UNL1        0.0005
@<TRIPOS>BOND
     1    25    26    1
     2    26    27   ar
     3    27    28   ar
     4    28    29   ar
     5    29    30   ar
     6    30    19    1
     7    19    20   ar
     8    20    21   ar
     9    21    22   ar
    10    22    18    1
    11    18    17    1
    12    17    16    1
    13    16    15    1
    14    15     1    1
    15     1     2    1
    16     2     3    1
    17     3     4    1
    18     4     5   ar
    19     5     6   ar
    20     6     7   ar
    21     7     8   ar
    22     8    31    1
    23    31    32    1
    24    32    33    1
    25    33    34    1
    26     8     9   ar
    27     9    10   ar
    28    10    11   ar
    29    11    12   ar
    30    12    13    1
    31    13    14    1
    32    22    23   ar
    33    23    24    1
    34    30    26   ar
    35    23    19   ar
    36    14     1    1
    37    12     4   ar
    38    10     6   ar
    39    34    32    1
@<TRIPOS>MOLECULE
*****
 34 39 0 0 0
SMALL
GASTEIGER

@<TRIPOS>ATOM
      1 N         140.8066  139.0610  160.0830 N.3     1  UNL1       -0.2720
      2 C         139.8798  138.0726  160.7268 C.3     1  UNL1        0.0768
      3 C         139.4342  138.0029  162.1574 C.3     1  UNL1        0.0434
      4 C         139.8052  138.9043  163.2974 C.ar    1  UNL1       -0.0230
      5 C         139.1347  138.4815  164.5710 C.ar    1  UNL1        0.0178
      6 C         139.3725  139.2524  165.8355 C.ar    1  UNL1        0.1182
      7 N         138.8543  139.0747  167.2319 N.ar    1  UNL1       -0.2121
      8 C         139.4423  140.1585  168.0860 C.ar    1  UNL1        0.2057
      9 O         140.3239  141.0061  167.2175 O.2     1  UNL1       -0.4384
     10 C         140.2808  140.4461  165.8267 C.ar    1  UNL1        0.1640
     11 C         140.9513  140.8689  164.5532 C.ar    1  UNL1        0.0346
     12 C         140.7135  140.0980  163.2886 C.ar    1  UNL1       -0.0216
     13 C         141.4751  140.6852  162.1374 C.3     1  UNL1        0.0434
     14 C         141.5165  140.2236  160.7108 C.3     1  UNL1        0.0768
     15 C         141.0563  138.8599  158.6177 C.3     1  UNL1        0.0730
     16 C         139.9177  138.5196  157.7025 C.3     1  UNL1        0.0294
     17 C         139.4352  139.5253  156.6995 C.3     1  UNL1        0.0666
     18 S         138.3657  140.5070  157.0767 S.3     1  UNL1       -0.0756
     19 C         138.2071  142.0536  160.6332 C.ar    1  UNL1        0.2029
     20 N         137.4364  140.7826  160.8352 N.ar    1  UNL1       -0.1250
     21 N         137.4020  140.0486  159.5275 N.ar    1  UNL1       -0.1220
     22 C         138.1515  140.8659  158.5174 C.ar    1  UNL1        0.1933
     23 N         138.6490  142.1050  159.2007 N.ar    1  UNL1       -0.2860
     24 C         139.4482  143.2029  158.5635 C.3     1  UNL1        0.1341
     25 C         137.4372  141.8418  163.7974 C.3     1  UNL1        0.0556
     26 C         138.1329  142.9936  163.1344 C.ar    1  UNL1        0.1001
     27 N         138.5969  144.2502  163.8094 N.ar    1  UNL1       -0.2085
     28 C         139.2375  145.1241  162.7722 C.ar    1  UNL1        0.2849
     29 O         139.1695  144.4076  161.4561 O.2     1  UNL1       -0.4283
     30 C         138.4868  143.0909  161.6799 C.ar    1  UNL1        0.1964
     31 C         139.1925  140.3594  169.5513 C.3     1  UNL1        0.0853
     32 C         139.8047  141.5295  170.2630 C.3     1  UNL1        0.0092
     33 C         139.9248  143.0115  170.4612 C.3     1  UNL1        0.0005
     34 C         140.7447  142.0740  171.2972 C.3     1  UNL1        0.0005
@<TRIPOS>BOND
     1    25    26    1
     2    26    27   ar
     3    27    28   ar
     4    28    29   ar
     5    29    30   ar
     6    30    19    1
     7    19    20   ar
     8    20    21   ar
     9    21    22   ar
    10    22    18    1
    11    18    17    1
    12    17    16    1
    13    16    15    1
    14    15     1    1
    15     1     2    1
    16     2     3    1
    17     3     4    1
    18     4     5   ar
    19     5     6   ar
    20     6     7   ar
    21     7     8   ar
    22     8    31    1
    23    31    32    1
    24    32    33    1
    25    33    34    1
    26     8     9   ar
    27     9    10   ar
    28    10    11   ar
    29    11    12   ar
    30    12    13    1
    31    13    14    1
    32    22    23   ar
    33    23    24    1
    34    30    26   ar
    35    23    19   ar
    36    14     1    1
    37    12     4   ar
    38    10     6   ar
    39    34    32    1
@<TRIPOS>MOLECULE
*****
 34 39 0 0 0
SMALL
GASTEIGER

@<TRIPOS>ATOM
      1 N         141.1806  145.0732  159.9915 N.3     1  UNL1       -0.2720
      2 C         140.2086  145.7409  160.9188 C.3     1  UNL1        0.0768
      3 C         139.9143  145.4200  162.3543 C.3     1  UNL1        0.0434
      4 C         140.5191  144.3525  163.2169 C.ar    1  UNL1       -0.0230
      5 C         139.9406  144.3730  164.6008 C.ar    1  UNL1        0.0178
      6 C         140.4108  143.3831  165.6250 C.ar    1  UNL1        0.1182
      7 N         140.0272  143.1630  167.0583 N.ar    1  UNL1       -0.2121
      8 C         140.8388  142.0165  167.5845 C.ar    1  UNL1        0.2057
      9 O         141.7239  141.5281  166.4765 O.2     1  UNL1       -0.4384
     10 C         141.4594  142.3726  165.2654 C.ar    1  UNL1        0.1640
     11 C         142.0379  142.3520  163.8816 C.ar    1  UNL1        0.0346
     12 C         141.5678  143.3420  162.8574 C.ar    1  UNL1       -0.0216
     13 C         142.2705  143.1495  161.5462 C.3     1  UNL1        0.0434
     14 C         142.0981  143.9200  160.2708 C.3     1  UNL1        0.0768
     15 C         141.2431  145.6330  158.6013 C.3     1  UNL1        0.0730
     16 C         140.1767  145.2869  157.6048 C.3     1  UNL1        0.0294
     17 C         139.9977  143.8652  157.1611 C.3     1  UNL1        0.0666
     18 S         138.8542  143.0523  157.6916 S.3     1  UNL1       -0.0756
     19 C         139.6157  140.7440  160.7177 C.ar    1  UNL1        0.2029
     20 N         138.7453  141.7842  161.3584 N.ar    1  UNL1       -0.1250
     21 N         138.3541  142.7754  160.3028 N.ar    1  UNL1       -0.1220
     22 C         138.9828  142.3479  159.0097 C.ar    1  UNL1        0.1933
     23 N         139.7624  141.0925  159.2661 N.ar    1  UNL1       -0.2860
     24 C         140.5506  140.3208  158.2495 C.3     1  UNL1        0.1341
     25 C         138.0187  138.1218  161.8238 C.3     1  UNL1        0.0556
     26 C         139.4972  138.3575  161.9159 C.ar    1  UNL1        0.1001
     27 N         140.5012  137.4293  162.5326 N.ar    1  UNL1       -0.2085
     28 C         141.8558  138.0609  162.4053 C.ar    1  UNL1        0.2849
     29 O         141.6890  139.3795  161.7099 O.2     1  UNL1       -0.4283
     30 C         140.2313  139.5629  161.4074 C.ar    1  UNL1        0.1964
     31 C         140.7762  141.4569  168.9748 C.3     1  UNL1        0.0853
     32 C         141.7675  140.4189  169.4108 C.3     1  UNL1        0.0092
     33 C         142.7315  139.8910  170.4316 C.3     1  UNL1        0.0005
     34 C         142.5206  139.1492  169.1451 C.3     1  UNL1        0.0005
@<TRIPOS>BOND
     1    25    26    1
     2    26    27   ar
     3    27    28   ar
     4    28    29   ar
     5    29    30   ar
     6    30    19    1
     7    19    20   ar
     8    20    21   ar
     9    21    22   ar
    10    22    18    1
    11    18    17    1
    12    17    16    1
    13    16    15    1
    14    15     1    1
    15     1     2    1
    16     2     3    1
    17     3     4    1
    18     4     5   ar
    19     5     6   ar
    20     6     7   ar
    21     7     8   ar
    22     8    31    1
    23    31    32    1
    24    32    33    1
    25    33    34    1
    26     8     9   ar
    27     9    10   ar
    28    10    11   ar
    29    11    12   ar
    30    12    13    1
    31    13    14    1
    32    22    23   ar
    33    23    24    1
    34    30    26   ar
    35    23    19   ar
    36    14     1    1
    37    12     4   ar
    38    10     6   ar
    39    34    32    1
@<TRIPOS>MOLECULE
*****
 34 39 0 0 0
SMALL
GASTEIGER

@<TRIPOS>ATOM
      1 N         139.3666  139.3521  160.1602 N.3     1  UNL1       -0.2720
      2 C         138.7959  138.2045  160.9396 C.3     1  UNL1        0.0768
      3 C         138.6524  138.0631  162.4261 C.3     1  UNL1        0.0434
      4 C         139.0440  139.0341  163.5001 C.ar    1  UNL1       -0.0230
      5 C         138.7255  138.4995  164.8650 C.ar    1  UNL1        0.0178
      6 C         139.0389  139.3174  166.0827 C.ar    1  UNL1        0.1182
      7 N         138.8408  139.0550  167.5462 N.ar    1  UNL1       -0.2121
      8 C         139.3503  140.2453  168.3036 C.ar    1  UNL1        0.2057
      9 O         139.8633  141.2432  167.3083 O.2     1  UNL1       -0.4384
     10 C         139.6709  140.6698  165.9357 C.ar    1  UNL1        0.1640
     11 C         139.9895  141.2043  164.5708 C.ar    1  UNL1        0.0346
     12 C         139.6760  140.3865  163.3531 C.ar    1  UNL1       -0.0216
     13 C         140.0724  141.1019  162.0956 C.3     1  UNL1        0.0434
     14 C         139.9347  140.6414  160.6747 C.3     1  UNL1        0.0768
     15 C         139.3696  139.1885  158.6692 C.3     1  UNL1        0.0730
     16 C         140.6264  139.4390  157.8896 C.3     1  UNL1        0.0294
     17 C         141.4579  138.2839  157.4159 C.3     1  UNL1        0.0666
     18 S         142.5830  137.7715  158.2654 S.3     1  UNL1       -0.0756
     19 C         143.4382  139.7607  161.4868 C.ar    1  UNL1        0.2029
     20 N         142.7652  138.5504  162.0635 N.ar    1  UNL1       -0.1250
     21 N         142.3629  137.6580  160.9269 N.ar    1  UNL1       -0.1220
     22 C         142.7873  138.3167  159.6478 C.ar    1  UNL1        0.1933
     23 N         143.4518  139.6161  159.9938 N.ar    1  UNL1       -0.2860
     24 C         144.0287  140.5986  159.0182 C.3     1  UNL1        0.1341
     25 C         145.1345  139.5514  164.2668 C.3     1  UNL1        0.0556
     26 C         144.7787  140.8168  163.5441 C.ar    1  UNL1        0.1001
     27 N         145.1403  142.2082  163.9723 N.ar    1  UNL1       -0.2085
     28 C         144.5840  143.1642  162.9591 C.ar    1  UNL1        0.2849
     29 O         143.8787  142.3638  161.9047 O.2     1  UNL1       -0.4283
     30 C         143.9990  140.9129  162.2662 C.ar    1  UNL1        0.1964
     31 C         139.3473  140.4088  169.7947 C.3     1  UNL1        0.0853
     32 C         140.5873  140.8712  170.5010 C.3     1  UNL1        0.0092
     33 C         141.2864  141.8619  171.3840 C.3     1  UNL1        0.0005
     34 C         142.0357  140.6813  170.8412 C.3     1  UNL1        0.0005
@<TRIPOS>BOND
     1    25    26    1
     2    26    27   ar
     3    27    28   ar
     4    28    29   ar
     5    29    30   ar
     6    30    19    1
     7    19    20   ar
     8    20    21   ar
     9    21    22   ar
    10    22    18    1
    11    18    17    1
    12    17    16    1
    13    16    15    1
    14    15     1    1
    15     1     2    1
    16     2     3    1
    17     3     4    1
    18     4     5   ar
    19     5     6   ar
    20     6     7   ar
    21     7     8   ar
    22     8    31    1
    23    31    32    1
    24    32    33    1
    25    33    34    1
    26     8     9   ar
    27     9    10   ar
    28    10    11   ar
    29    11    12   ar
    30    12    13    1
    31    13    14    1
    32    22    23   ar
    33    23    24    1
    34    30    26   ar
    35    23    19   ar
    36    14     1    1
    37    12     4   ar
    38    10     6   ar
    39    34    32    1
@<TRIPOS>MOLECULE
*****
 34 39 0 0 0
SMALL
GASTEIGER

@<TRIPOS>ATOM
      1 N         139.6647  139.3653  165.7823 N.3     1  UNL1       -0.2720
      2 C         138.6534  139.4687  164.6793 C.3     1  UNL1        0.0768
      3 C         138.8482  139.2490  163.2082 C.3     1  UNL1        0.0434
      4 C         140.1023  138.8719  162.4770 C.ar    1  UNL1       -0.0230
      5 C         139.8614  138.7526  161.0012 C.ar    1  UNL1        0.0178
      6 C         140.9896  138.3826  160.0846 C.ar    1  UNL1        0.1182
      7 N         141.0538  138.1914  158.5983 N.ar    1  UNL1       -0.2121
      8 C         142.4625  137.8225  158.2387 C.ar    1  UNL1        0.2057
      9 O         143.2690  137.7858  159.5029 O.2     1  UNL1       -0.4384
     10 C         142.3588  138.1319  160.6436 C.ar    1  UNL1        0.1640
     11 C         142.5997  138.2512  162.1194 C.ar    1  UNL1        0.0346
     12 C         141.4715  138.6212  163.0360 C.ar    1  UNL1       -0.0216
     13 C         141.9246  138.6857  164.4645 C.3     1  UNL1        0.0434
     14 C         141.1205  139.0169  165.6867 C.3     1  UNL1        0.0768
     15 C         139.1524  139.6479  167.1635 C.3     1  UNL1        0.0730
     16 C         140.1104  140.0100  168.2593 C.3     1  UNL1        0.0294
     17 C         139.9434  141.3007  169.0054 C.3     1  UNL1        0.0666
     18 S         140.7384  142.5075  168.6035 S.3     1  UNL1       -0.0756
     19 C         142.2654  142.6588  165.0382 C.ar    1  UNL1        0.2029
     20 N         143.4449  142.1925  165.8392 N.ar    1  UNL1       -0.1250
     21 N         143.0163  142.0791  167.2722 N.ar    1  UNL1       -0.1220
     22 C         141.5721  142.4753  167.3569 C.ar    1  UNL1        0.1933
     23 N         141.1080  142.8336  165.9763 N.ar    1  UNL1       -0.2860
     24 C         139.7287  143.2871  165.5997 C.3     1  UNL1        0.1341
     25 C         143.7250  145.1329  163.4895 C.3     1  UNL1        0.0556
     26 C         142.9176  144.0440  162.8471 C.ar    1  UNL1        0.1001
     27 N         142.6393  143.9012  161.3802 N.ar    1  UNL1       -0.2085
     28 C         141.7965  142.6758  161.1854 C.ar    1  UNL1        0.2849
     29 O         141.5538  142.0612  162.5320 O.2     1  UNL1       -0.4283
     30 C         142.2467  142.9068  163.5591 C.ar    1  UNL1        0.1964
     31 C         142.9748  137.5400  156.8575 C.3     1  UNL1        0.0853
     32 C         143.2602  136.1285  156.4375 C.3     1  UNL1        0.0092
     33 C         143.7253  134.7424  156.7726 C.3     1  UNL1        0.0005
     34 C         143.2894  135.0699  155.3753 C.3     1  UNL1        0.0005
@<TRIPOS>BOND
     1    25    26    1
     2    26    27   ar
     3    27    28   ar
     4    28    29   ar
     5    29    30   ar
     6    30    19    1
     7    19    20   ar
     8    20    21   ar
     9    21    22   ar
    10    22    18    1
    11    18    17    1
    12    17    16    1
    13    16    15    1
    14    15     1    1
    15     1     2    1
    16     2     3    1
    17     3     4    1
    18     4     5   ar
    19     5     6   ar
    20     6     7   ar
    21     7     8   ar
    22     8    31    1
    23    31    32    1
    24    32    33    1
    25    33    34    1
    26     8     9   ar
    27     9    10   ar
    28    10    11   ar
    29    11    12   ar
    30    12    13    1
    31    13    14    1
    32    22    23   ar
    33    23    24    1
    34    30    26   ar
    35    23    19   ar
    36    14     1    1
    37    12     4   ar
    38    10     6   ar
    39    34    32    1
@<TRIPOS>MOLECULE
*****
 34 39 0 0 0
SMALL
GASTEIGER

@<TRIPOS>ATOM
      1 N         144.1593  140.9447  159.2880 N.3     1  UNL1       -0.2720
      2 C         143.7859  139.5511  159.6986 C.3     1  UNL1        0.0768
      3 C         143.4422  139.0394  161.0662 C.3     1  UNL1        0.0434
      4 C         143.3871  139.7950  162.3607 C.ar    1  UNL1       -0.0230
      5 C         142.9988  138.9009  163.5009 C.ar    1  UNL1        0.0178
      6 C         142.8853  139.4607  164.8879 C.ar    1  UNL1        0.1182
      7 N         142.5248  138.8280  166.1993 N.ar    1  UNL1       -0.2121
      8 C         142.5769  139.8907  167.2566 C.ar    1  UNL1        0.2057
      9 O         142.9696  141.1802  166.5987 O.2     1  UNL1       -0.4384
     10 C         143.1602  140.9145  165.1349 C.ar    1  UNL1        0.1640
     11 C         143.5486  141.8085  163.9947 C.ar    1  UNL1        0.0346
     12 C         143.6621  141.2488  162.6077 C.ar    1  UNL1       -0.0216
     13 C         144.0600  142.3061  161.6209 C.3     1  UNL1        0.0434
     14 C         144.2813  142.1706  160.1435 C.3     1  UNL1        0.0768
     15 C         144.4490  141.1376  157.8289 C.3     1  UNL1        0.0730
     16 C         144.3662  142.5070  157.2225 C.3     1  UNL1        0.0294
     17 C         143.0963  142.9608  156.5657 C.3     1  UNL1        0.0666
     18 S         141.7838  142.7877  157.2709 S.3     1  UNL1       -0.0756
     19 C         140.5068  144.3718  160.5763 C.ar    1  UNL1        0.2029
     20 N         141.4379  145.4398  160.0837 N.ar    1  UNL1       -0.1250
     21 N         142.0296  144.9764  158.7856 N.ar    1  UNL1       -0.1220
     22 C         141.4642  143.6220  158.4758 C.ar    1  UNL1        0.1933
     23 N         140.5231  143.2484  159.5825 N.ar    1  UNL1       -0.2860
     24 C         139.7363  141.9748  159.6786 C.3     1  UNL1        0.1341
     25 C         141.6482  145.0667  163.5535 C.3     1  UNL1        0.0556
     26 C         140.2256  144.7384  163.2091 C.ar    1  UNL1        0.1001
     27 N         139.0780  144.6719  164.1726 N.ar    1  UNL1       -0.2085
     28 C         137.8441  144.3114  163.3996 C.ar    1  UNL1        0.2849
     29 O         138.2291  144.1551  161.9583 O.2     1  UNL1       -0.4283
     30 C         139.7010  144.4190  161.8405 C.ar    1  UNL1        0.1964
     31 C         142.2872  139.6976  168.7157 C.3     1  UNL1        0.0853
     32 C         140.9183  139.9923  169.2538 C.3     1  UNL1        0.0092
     33 C         140.0279  140.3830  170.3960 C.3     1  UNL1        0.0005
     34 C         139.4380  140.1119  169.0438 C.3     1  UNL1        0.0005
@<TRIPOS>BOND
     1    25    26    1
     2    26    27   ar
     3    27    28   ar
     4    28    29   ar
     5    29    30   ar
     6    30    19    1
     7    19    20   ar
     8    20    21   ar
     9    21    22   ar
    10    22    18    1
    11    18    17    1
    12    17    16    1
    13    16    15    1
    14    15     1    1
    15     1     2    1
    16     2     3    1
    17     3     4    1
    18     4     5   ar
    19     5     6   ar
    20     6     7   ar
    21     7     8   ar
    22     8    31    1
    23    31    32    1
    24    32    33    1
    25    33    34    1
    26     8     9   ar
    27     9    10   ar
    28    10    11   ar
    29    11    12   ar
    30    12    13    1
    31    13    14    1
    32    22    23   ar
    33    23    24    1
    34    30    26   ar
    35    23    19   ar
    36    14     1    1
    37    12     4   ar
    38    10     6   ar
    39    34    32    1
@<TRIPOS>MOLECULE
*****
 34 39 0 0 0
SMALL
GASTEIGER

@<TRIPOS>ATOM
      1 N         139.5240  139.2582  159.6201 N.3     1  UNL1       -0.2720
      2 C         140.9223  139.2730  160.1629 C.3     1  UNL1        0.0768
      3 C         141.3719  139.4325  161.5851 C.3     1  UNL1        0.0434
      4 C         140.5342  139.6166  162.8156 C.ar    1  UNL1       -0.0230
      5 C         141.3853  139.7371  164.0449 C.ar    1  UNL1        0.0178
      6 C         140.7422  139.9277  165.3866 C.ar    1  UNL1        0.1182
      7 N         141.3181  140.0768  166.7636 N.ar    1  UNL1       -0.2121
      8 C         140.1799  140.2391  167.7270 C.ar    1  UNL1        0.2057
      9 O         138.9006  140.1903  166.9454 O.2     1  UNL1       -0.4384
     10 C         139.2481  139.9978  165.4991 C.ar    1  UNL1        0.1640
     11 C         138.3970  139.8773  164.2697 C.ar    1  UNL1        0.0346
     12 C         139.0400  139.6867  162.9280 C.ar    1  UNL1       -0.0216
     13 C         138.0146  139.5900  161.8376 C.3     1  UNL1        0.0434
     14 C         138.2300  139.3993  160.3654 C.3     1  UNL1        0.0768
     15 C         139.4040  139.0786  158.1358 C.3     1  UNL1        0.0730
     16 C         139.1827  140.2699  157.2516 C.3     1  UNL1        0.0294
     17 C         140.2684  141.2914  157.0839 C.3     1  UNL1        0.0666
     18 S         140.0971  142.6683  157.6536 S.3     1  UNL1       -0.0756
     19 C         139.7482  143.1100  161.4941 C.ar    1  UNL1        0.2029
     20 N         138.3091  143.1057  161.0708 N.ar    1  UNL1       -0.1250
     21 N         138.2647  142.9398  159.5807 N.ar    1  UNL1       -0.1220
     22 C         139.6763  142.8415  159.0830 C.ar    1  UNL1        0.1933
     23 N         140.5931  142.9467  160.2655 N.ar    1  UNL1       -0.2860
     24 C         142.0918  142.8972  160.2263 C.3     1  UNL1        0.1341
     25 C         137.9134  143.5467  164.1573 C.3     1  UNL1        0.0556
     26 C         139.4102  143.4533  164.1233 C.ar    1  UNL1        0.1001
     27 N         140.3263  143.5443  165.3075 N.ar    1  UNL1       -0.2085
     28 C         141.7358  143.3997  164.8152 C.ar    1  UNL1        0.2849
     29 O         141.6908  143.2194  163.3268 O.2     1  UNL1       -0.4283
     30 C         140.2535  143.2526  162.8991 C.ar    1  UNL1        0.1964
     31 C         140.3000  140.4188  169.2114 C.3     1  UNL1        0.0853
     32 C         140.3592  141.7983  169.7975 C.3     1  UNL1        0.0092
     33 C         139.7548  142.8746  170.6497 C.3     1  UNL1        0.0005
     34 C         141.0659  143.1112  169.9605 C.3     1  UNL1        0.0005
@<TRIPOS>BOND
     1    25    26    1
     2    26    27   ar
     3    27    28   ar
     4    28    29   ar
     5    29    30   ar
     6    30    19    1
     7    19    20   ar
     8    20    21   ar
     9    21    22   ar
    10    22    18    1
    11    18    17    1
    12    17    16    1
    13    16    15    1
    14    15     1    1
    15     1     2    1
    16     2     3    1
    17     3     4    1
    18     4     5   ar
    19     5     6   ar
    20     6     7   ar
    21     7     8   ar
    22     8    31    1
    23    31    32    1
    24    32    33    1
    25    33    34    1
    26     8     9   ar
    27     9    10   ar
    28    10    11   ar
    29    11    12   ar
    30    12    13    1
    31    13    14    1
    32    22    23   ar
    33    23    24    1
    34    30    26   ar
    35    23    19   ar
    36    14     1    1
    37    12     4   ar
    38    10     6   ar
    39    34    32    1
@<TRIPOS>MOLECULE
*****
 34 39 0 0 0
SMALL
GASTEIGER

@<TRIPOS>ATOM
      1 N         140.8300  141.6203  165.3954 N.3     1  UNL1       -0.2720
      2 C         141.8931  142.6587  165.1911 C.3     1  UNL1        0.0768
      3 C         142.1733  143.4824  163.9691 C.3     1  UNL1        0.0434
      4 C         141.4598  143.4711  162.6499 C.ar    1  UNL1       -0.0230
      5 C         142.0624  144.4560  161.6924 C.ar    1  UNL1        0.0178
      6 C         141.4951  144.6032  160.3117 C.ar    1  UNL1        0.1182
      7 N         141.8760  145.4837  159.1586 N.ar    1  UNL1       -0.2121
      8 C         140.9414  145.1901  158.0227 C.ar    1  UNL1        0.2057
      9 O         139.9829  144.1282  158.4737 O.2     1  UNL1       -0.4384
     10 C         140.3251  143.7655  159.8883 C.ar    1  UNL1        0.1640
     11 C         139.7224  142.7805  160.8458 C.ar    1  UNL1        0.0346
     12 C         140.2897  142.6333  162.2265 C.ar    1  UNL1       -0.0216
     13 C         139.5443  141.5999  163.0180 C.3     1  UNL1        0.0434
     14 C         139.7848  141.1491  164.4283 C.3     1  UNL1        0.0768
     15 C         140.8096  140.9667  166.7453 C.3     1  UNL1        0.0730
     16 C         142.0918  140.5148  167.3793 C.3     1  UNL1        0.0294
     17 C         142.6350  139.1487  167.0815 C.3     1  UNL1        0.0666
     18 S         143.2376  138.8575  165.7391 S.3     1  UNL1       -0.0756
     19 C         141.3117  138.0710  162.4623 C.ar    1  UNL1        0.2029
     20 N         140.7880  136.9984  163.3709 N.ar    1  UNL1       -0.1250
     21 N         141.4458  137.1625  164.7089 N.ar    1  UNL1       -0.1220
     22 C         142.3759  138.3365  164.6273 C.ar    1  UNL1        0.1933
     23 N         142.2930  138.8979  163.2389 N.ar    1  UNL1       -0.2860
     24 C         143.0573  140.0790  162.7183 C.3     1  UNL1        0.1341
     25 C         138.2808  138.5387  161.3466 C.3     1  UNL1        0.0556
     26 C         139.5291  138.4949  160.5160 C.ar    1  UNL1        0.1001
     27 N         139.6035  138.6584  159.0269 N.ar    1  UNL1       -0.2085
     28 C         141.0426  138.5444  158.6193 C.ar    1  UNL1        0.2849
     29 O         141.8576  138.3105  159.8566 O.2     1  UNL1       -0.4283
     30 C         140.9223  138.2799  161.0289 C.ar    1  UNL1        0.1964
     31 C         140.9619  145.8438  156.6727 C.3     1  UNL1        0.0853
     32 C         139.7553  146.5872  156.1811 C.3     1  UNL1        0.0092
     33 C         138.5452  146.6601  155.2977 C.3     1  UNL1        0.0005
     34 C         138.8756  147.8017  156.2129 C.3     1  UNL1        0.0005
@<TRIPOS>BOND
     1    25    26    1
     2    26    27   ar
     3    27    28   ar
     4    28    29   ar
     5    29    30   ar
     6    30    19    1
     7    19    20   ar
     8    20    21   ar
     9    21    22   ar
    10    22    18    1
    11    18    17    1
    12    17    16    1
    13    16    15    1
    14    15     1    1
    15     1     2    1
    16     2     3    1
    17     3     4    1
    18     4     5   ar
    19     5     6   ar
    20     6     7   ar
    21     7     8   ar
    22     8    31    1
    23    31    32    1
    24    32    33    1
    25    33    34    1
    26     8     9   ar
    27     9    10   ar
    28    10    11   ar
    29    11    12   ar
    30    12    13    1
    31    13    14    1
    32    22    23   ar
    33    23    24    1
    34    30    26   ar
    35    23    19   ar
    36    14     1    1
    37    12     4   ar
    38    10     6   ar
    39    34    32    1
