@<TRIPOS>MOLECULE
*****
 32 34 0 0 0
SMALL
GASTEIGER

@<TRIPOS>ATOM
      1 C         142.5626  139.5662  167.2156 C.3     1  UNL1        0.1684
      2 N         141.8202  140.6913  166.5574 N.am    1  UNL1       -0.2935
      3 C         140.3236  140.6503  166.4662 C.2     1  UNL1        0.2240
      4 O         139.5693  139.4843  167.0331 O.2     1  UNL1       -0.2750
      5 H         142.3153  141.4566  166.1854 H       1  UNL1        0.1503
      6 C         139.5812  141.7754  165.8082 C.3     1  UNL1        0.0906
      7 C         139.9184  143.1524  166.2985 C.3     1  UNL1        0.0104
      8 C         139.3574  144.4688  165.8485 C.3     1  UNL1        0.0005
      9 C         138.3208  144.7333  164.7972 C.3     1  UNL1        0.0001
     10 C         137.5890  143.7469  163.9361 C.3     1  UNL1        0.0014
     11 C         137.7131  142.2522  163.9138 C.3     1  UNL1        0.0160
     12 C         138.5998  141.3749  164.7469 C.3     1  UNL1        0.0594
     13 N         138.4905  139.9021  164.4840 N.3     1  UNL1       -0.3218
     14 H         137.8011  139.7380  163.7504 H       1  UNL1        0.1188
     15 H         138.1992  139.4251  165.3373 H       1  UNL1        0.1188
     16 C         142.7341  139.5510  168.7057 C.1     1  UNL1        0.0927
     17 N         142.9056  139.5358  170.1958 N.1     1  UNL1       -0.1942
     18 C         143.1335  138.4563  166.3836 C.3     1  UNL1        0.0616
     19 C         142.1926  138.2262  161.9890 C.ar    1  UNL1       -0.0000
     20 C         141.2683  137.5955  162.9879 C.ar    1  UNL1       -0.0003
     21 C         141.5819  137.6722  164.4528 C.ar    1  UNL1       -0.0042
     22 C         142.8198  138.3796  164.9187 C.ar    1  UNL1       -0.0194
     23 C         143.7442  139.0103  163.9198 C.ar    1  UNL1       -0.0042
     24 C         143.4305  138.9336  162.4550 C.ar    1  UNL1       -0.0003
     25 C         141.2518  137.9960  157.5945 C.ar    1  UNL1        0.0684
     26 C         142.6072  137.5911  158.0936 C.ar    1  UNL1        0.0103
     27 C         142.9208  137.6678  159.5584 C.ar    1  UNL1        0.0007
     28 C         141.8790  138.1495  160.5242 C.ar    1  UNL1        0.0000
     29 C         140.5237  138.5543  160.0252 C.ar    1  UNL1        0.0007
     30 C         140.2100  138.4776  158.5603 C.ar    1  UNL1        0.0103
     31 N         140.6246  137.8426  154.6648 N.1     1  UNL1       -0.1908
     32 C         140.9382  137.9193  156.1296 C.1     1  UNL1        0.1004
@<TRIPOS>BOND
     1    31    32    3
     2    32    25    1
     3    25    26   ar
     4    26    27   ar
     5    27    28   ar
     6    28    19    1
     7    19    20   ar
     8    20    21   ar
     9    21    22   ar
    10    22    18    1
    11     1    18    1
    12     1    16    1
    13    16    17    3
    14     1     2    1
    15     2     3   am
    16     3     4    2
    17     6     3    1
    18     6     7    1
    19     7     8    1
    20     8     9    1
    21     9    10    1
    22    10    11    1
    23    11    12    1
    24    12    13    1
    25    22    23   ar
    26    23    24   ar
    27    28    29   ar
    28    29    30   ar
    29    30    25   ar
    30    24    19   ar
    31    12     6    1
    32     2     5    1
    33    13    14    1
    34    13    15    1
@<TRIPOS>MOLECULE
*****
 32 34 0 0 0
SMALL
GASTEIGER

@<TRIPOS>ATOM
      1 C         142.5949  138.5300  159.4834 C.3     1  UNL1        0.1684
      2 N         141.8317  139.7928  159.7539 N.am    1  UNL1       -0.2935
      3 C         142.5684  141.0655  160.0499 C.2     1  UNL1        0.2240
      4 O         144.0681  141.0754  160.0754 O.2     1  UNL1       -0.2750
      5 H         140.8474  139.7863  159.7371 H       1  UNL1        0.1503
      6 C         141.8053  142.3283  160.3204 C.3     1  UNL1        0.0906
      7 C         140.9169  142.3056  161.5288 C.3     1  UNL1        0.0104
      8 C         140.0352  143.3958  162.0620 C.3     1  UNL1        0.0005
      9 C         139.8243  144.7778  161.5185 C.3     1  UNL1        0.0001
     10 C         140.4429  145.4111  160.3075 C.3     1  UNL1        0.0014
     11 C         141.4252  144.8186  159.3410 C.3     1  UNL1        0.0160
     12 C         142.0315  143.4466  159.3468 C.3     1  UNL1        0.0594
     13 N         142.9909  143.1544  158.2314 N.3     1  UNL1       -0.3218
     14 H         143.0731  143.9742  157.6301 H       1  UNL1        0.1188
     15 H         142.6466  142.3650  157.6848 H       1  UNL1        0.1188
     16 C         142.9716  138.1679  158.0774 C.1     1  UNL1        0.0927
     17 N         143.3482  137.8058  156.6713 N.1     1  UNL1       -0.1942
     18 C         142.9813  137.6295  160.6190 C.3     1  UNL1        0.0616
     19 C         142.0870  138.8446  164.8586 C.ar    1  UNL1       -0.0000
     20 C         141.0956  138.0235  164.0887 C.ar    1  UNL1       -0.0003
     21 C         141.3936  137.6184  162.6755 C.ar    1  UNL1       -0.0042
     22 C         142.6831  138.0345  162.0322 C.ar    1  UNL1       -0.0194
     23 C         143.6747  138.8556  162.8021 C.ar    1  UNL1       -0.0042
     24 C         143.3766  139.2607  164.2153 C.ar    1  UNL1       -0.0003
     25 C         141.1927  140.0597  169.0981 C.ar    1  UNL1        0.0684
     26 C         140.1346  140.1864  168.0425 C.ar    1  UNL1        0.0103
     27 C         140.4326  139.7814  166.6293 C.ar    1  UNL1        0.0007
     28 C         141.7889  139.2496  166.2717 C.ar    1  UNL1        0.0000
     29 C         142.8471  139.1230  167.3273 C.ar    1  UNL1        0.0007
     30 C         142.5490  139.5280  168.7406 C.ar    1  UNL1        0.0103
     31 N         140.5965  140.8698  171.9245 N.1     1  UNL1       -0.1908
     32 C         140.8946  140.4648  170.5114 C.1     1  UNL1        0.1004
@<TRIPOS>BOND
     1    31    32    3
     2    32    25    1
     3    25    26   ar
     4    26    27   ar
     5    27    28   ar
     6    28    19    1
     7    19    20   ar
     8    20    21   ar
     9    21    22   ar
    10    22    18    1
    11     1    18    1
    12     1    16    1
    13    16    17    3
    14     1     2    1
    15     2     3   am
    16     3     4    2
    17     6     3    1
    18     6     7    1
    19     7     8    1
    20     8     9    1
    21     9    10    1
    22    10    11    1
    23    11    12    1
    24    12    13    1
    25    22    23   ar
    26    23    24   ar
    27    28    29   ar
    28    29    30   ar
    29    30    25   ar
    30    24    19   ar
    31    12     6    1
    32     2     5    1
    33    13    14    1
    34    13    15    1
@<TRIPOS>MOLECULE
*****
 32 34 0 0 0
SMALL
GASTEIGER

@<TRIPOS>ATOM
      1 C         142.8573  138.3962  159.5201 C.3     1  UNL1        0.1684
      2 N         142.6174  139.8722  159.6381 N.am    1  UNL1       -0.2935
      3 C         141.2329  140.3888  159.8954 C.2     1  UNL1        0.2240
      4 O         140.0883  139.4295  160.0348 O.2     1  UNL1       -0.2750
      5 H         143.3687  140.5019  159.5466 H       1  UNL1        0.1503
      6 C         140.9930  141.8648  160.0134 C.3     1  UNL1        0.0906
      7 C         140.7302  142.5864  158.7248 C.3     1  UNL1        0.0104
      8 C         140.4570  144.0455  158.5089 C.3     1  UNL1        0.0005
      9 C         140.3793  145.1432  159.5281 C.3     1  UNL1        0.0001
     10 C         140.5554  145.0531  161.0150 C.3     1  UNL1        0.0014
     11 C         140.8528  143.8430  161.8499 C.3     1  UNL1        0.0160
     12 C         141.0476  142.4240  161.4040 C.3     1  UNL1        0.0594
     13 N         141.3349  141.4333  162.4931 N.3     1  UNL1       -0.3218
     14 H         141.3501  141.9126  163.3933 H       1  UNL1        0.1188
     15 H         142.2412  140.9966  162.3250 H       1  UNL1        0.1188
     16 C         142.5609  137.6888  158.2311 C.1     1  UNL1        0.0927
     17 N         142.2645  136.9814  156.9420 N.1     1  UNL1       -0.1942
     18 C         143.3936  137.6276  160.6913 C.3     1  UNL1        0.0616
     19 C         142.2971  138.8542  164.8798 C.ar    1  UNL1       -0.0000
     20 C         143.6163  139.2681  164.2981 C.ar    1  UNL1       -0.0003
     21 C         143.9819  138.8592  162.9020 C.ar    1  UNL1       -0.0042
     22 C         143.0281  138.0365  162.0875 C.ar    1  UNL1       -0.0194
     23 C         141.7088  137.6226  162.6691 C.ar    1  UNL1       -0.0042
     24 C         141.3434  138.0315  164.0653 C.ar    1  UNL1       -0.0003
     25 C         141.2007  140.0808  169.0682 C.ar    1  UNL1        0.0684
     26 C         142.5773  139.5626  168.7746 C.ar    1  UNL1        0.0103
     27 C         142.9429  139.1537  167.3784 C.ar    1  UNL1        0.0007
     28 C         141.9316  139.2631  166.2759 C.ar    1  UNL1        0.0000
     29 C         140.5550  139.7814  166.5695 C.ar    1  UNL1        0.0007
     30 C         140.1895  140.1903  167.9657 C.ar    1  UNL1        0.0103
     31 N         140.4697  140.8986  171.8605 N.1     1  UNL1       -0.1908
     32 C         140.8352  140.4897  170.4644 C.1     1  UNL1        0.1004
@<TRIPOS>BOND
     1    31    32    3
     2    32    25    1
     3    25    26   ar
     4    26    27   ar
     5    27    28   ar
     6    28    19    1
     7    19    20   ar
     8    20    21   ar
     9    21    22   ar
    10    22    18    1
    11     1    18    1
    12     1    16    1
    13    16    17    3
    14     1     2    1
    15     2     3   am
    16     3     4    2
    17     6     3    1
    18     6     7    1
    19     7     8    1
    20     8     9    1
    21     9    10    1
    22    10    11    1
    23    11    12    1
    24    12    13    1
    25    22    23   ar
    26    23    24   ar
    27    28    29   ar
    28    29    30   ar
    29    30    25   ar
    30    24    19   ar
    31    12     6    1
    32     2     5    1
    33    13    14    1
    34    13    15    1
@<TRIPOS>MOLECULE
*****
 32 34 0 0 0
SMALL
GASTEIGER

@<TRIPOS>ATOM
      1 C         142.5225  137.9832  159.3253 C.3     1  UNL1        0.1684
      2 N         142.2834  136.8245  158.4031 N.am    1  UNL1       -0.2935
      3 C         142.9964  136.7554  157.0852 C.2     1  UNL1        0.2240
      4 O         143.9484  137.8449  156.6895 O.2     1  UNL1       -0.2750
      5 H         141.6586  136.1094  158.6628 H       1  UNL1        0.1503
      6 C         142.7573  135.5968  156.1630 C.3     1  UNL1        0.0906
      7 C         142.2665  135.9486  154.7898 C.3     1  UNL1        0.0104
      8 C         141.9379  135.0301  153.6503 C.3     1  UNL1        0.0005
      9 C         142.0188  133.5331  153.6026 C.3     1  UNL1        0.0001
     10 C         142.4484  132.5847  154.6824 C.3     1  UNL1        0.0014
     11 C         142.9032  132.8992  156.0768 C.3     1  UNL1        0.0160
     12 C         143.0406  134.2398  156.7356 C.3     1  UNL1        0.0594
     13 N         143.5256  134.2207  158.1550 N.3     1  UNL1       -0.3218
     14 H         143.6874  133.2566  158.4460 H       1  UNL1        0.1188
     15 H         142.8227  134.6451  158.7601 H       1  UNL1        0.1188
     16 C         141.7610  139.2616  159.1365 C.1     1  UNL1        0.0927
     17 N         140.9994  140.5400  158.9475 N.1     1  UNL1       -0.1942
     18 C         143.5231  137.8633  160.4363 C.3     1  UNL1        0.0616
     19 C         142.3503  138.9382  164.6458 C.ar    1  UNL1       -0.0000
     20 C         143.6776  139.3767  164.1018 C.ar    1  UNL1       -0.0003
     21 C         144.0686  139.0184  162.6987 C.ar    1  UNL1       -0.0042
     22 C         143.1322  138.2217  161.8395 C.ar    1  UNL1       -0.0194
     23 C         141.8048  137.7831  162.3834 C.ar    1  UNL1       -0.0042
     24 C         141.4139  138.1415  163.7866 C.ar    1  UNL1       -0.0003
     25 C         141.1774  140.0131  168.8551 C.ar    1  UNL1        0.0684
     26 C         140.2058  140.2167  167.7307 C.ar    1  UNL1        0.0103
     27 C         140.5967  139.8584  166.3275 C.ar    1  UNL1        0.0007
     28 C         141.9593  139.2965  166.0489 C.ar    1  UNL1        0.0000
     29 C         142.9310  139.0929  167.1733 C.ar    1  UNL1        0.0007
     30 C         142.5400  139.4513  168.5765 C.ar    1  UNL1        0.0103
     31 N         140.3955  140.7297  171.6614 N.1     1  UNL1       -0.1908
     32 C         140.7864  140.3715  170.2583 C.1     1  UNL1        0.1004
@<TRIPOS>BOND
     1    31    32    3
     2    32    25    1
     3    25    26   ar
     4    26    27   ar
     5    27    28   ar
     6    28    19    1
     7    19    20   ar
     8    20    21   ar
     9    21    22   ar
    10    22    18    1
    11     1    18    1
    12     1    16    1
    13    16    17    3
    14     1     2    1
    15     2     3   am
    16     3     4    2
    17     6     3    1
    18     6     7    1
    19     7     8    1
    20     8     9    1
    21     9    10    1
    22    10    11    1
    23    11    12    1
    24    12    13    1
    25    22    23   ar
    26    23    24   ar
    27    28    29   ar
    28    29    30   ar
    29    30    25   ar
    30    24    19   ar
    31    12     6    1
    32     2     5    1
    33    13    14    1
    34    13    15    1
@<TRIPOS>MOLECULE
*****
 32 34 0 0 0
SMALL
GASTEIGER

@<TRIPOS>ATOM
      1 C         141.4053  145.1752  159.6410 C.3     1  UNL1        0.1684
      2 N         141.6694  145.6981  158.2600 N.am    1  UNL1       -0.2935
      3 C         140.7710  145.3053  157.1248 C.2     1  UNL1        0.2240
      4 O         139.6086  144.3897  157.3705 O.2     1  UNL1       -0.2750
      5 H         142.4323  146.2990  158.0987 H       1  UNL1        0.1503
      6 C         141.0351  145.8281  155.7439 C.3     1  UNL1        0.0906
      7 C         142.0577  145.0735  154.9469 C.3     1  UNL1        0.0104
      8 C         142.5394  145.3408  153.5517 C.3     1  UNL1        0.0005
      9 C         142.1176  146.4285  152.6090 C.3     1  UNL1        0.0001
     10 C         141.1098  147.5177  152.8285 C.3     1  UNL1        0.0014
     11 C         140.2750  147.7881  154.0450 C.3     1  UNL1        0.0160
     12 C         140.2418  147.0360  155.3425 C.3     1  UNL1        0.0594
     13 N         139.2892  147.5617  156.3751 N.3     1  UNL1       -0.3218
     14 H         138.8028  148.3782  156.0047 H       1  UNL1        0.1188
     15 H         139.8077  147.8258  157.2129 H       1  UNL1        0.1188
     16 C         140.2927  145.7558  160.4627 C.1     1  UNL1        0.0927
     17 N         139.1802  146.3365  161.2843 N.1     1  UNL1       -0.1942
     18 C         142.2537  144.0719  160.2002 C.3     1  UNL1        0.0616
     19 C         141.9939  143.0281  164.5698 C.ar    1  UNL1       -0.0000
     20 C         142.8813  144.1499  164.1181 C.ar    1  UNL1       -0.0003
     21 C         142.9680  144.4979  162.6616 C.ar    1  UNL1       -0.0042
     22 C         142.1671  143.7240  161.6567 C.ar    1  UNL1       -0.0194
     23 C         141.2796  142.6022  162.1083 C.ar    1  UNL1       -0.0042
     24 C         141.1930  142.2543  163.5649 C.ar    1  UNL1       -0.0003
     25 C         141.7340  141.9843  168.9393 C.ar    1  UNL1        0.0684
     26 C         140.4969  142.3760  168.1869 C.ar    1  UNL1        0.0103
     27 C         140.5834  142.7240  166.7303 C.ar    1  UNL1        0.0007
     28 C         141.9073  142.6802  166.0262 C.ar    1  UNL1        0.0000
     29 C         143.1444  142.2885  166.7786 C.ar    1  UNL1        0.0007
     30 C         143.0577  141.9406  168.2352 C.ar    1  UNL1        0.0103
     31 N         141.5607  141.2885  171.8523 N.1     1  UNL1       -0.1908
     32 C         141.6474  141.6364  170.3959 C.1     1  UNL1        0.1004
@<TRIPOS>BOND
     1    31    32    3
     2    32    25    1
     3    25    26   ar
     4    26    27   ar
     5    27    28   ar
     6    28    19    1
     7    19    20   ar
     8    20    21   ar
     9    21    22   ar
    10    22    18    1
    11     1    18    1
    12     1    16    1
    13    16    17    3
    14     1     2    1
    15     2     3   am
    16     3     4    2
    17     6     3    1
    18     6     7    1
    19     7     8    1
    20     8     9    1
    21     9    10    1
    22    10    11    1
    23    11    12    1
    24    12    13    1
    25    22    23   ar
    26    23    24   ar
    27    28    29   ar
    28    29    30   ar
    29    30    25   ar
    30    24    19   ar
    31    12     6    1
    32     2     5    1
    33    13    14    1
    34    13    15    1
@<TRIPOS>MOLECULE
*****
 32 34 0 0 0
SMALL
GASTEIGER

@<TRIPOS>ATOM
      1 C         138.5375  140.0042  159.3909 C.3     1  UNL1        0.1684
      2 N         138.0444  139.9191  157.9768 N.am    1  UNL1       -0.2935
      3 C         137.6124  141.1623  157.2571 C.2     1  UNL1        0.2240
      4 O         137.6735  142.4905  157.9515 O.2     1  UNL1       -0.2750
      5 H         138.0042  139.0474  157.5211 H       1  UNL1        0.1503
      6 C         137.1192  141.0773  155.8431 C.3     1  UNL1        0.0906
      7 C         138.0784  141.5475  154.7900 C.3     1  UNL1        0.0104
      8 C         137.8874  141.5899  153.3027 C.3     1  UNL1        0.0005
      9 C         136.6901  141.1726  152.5014 C.3     1  UNL1        0.0001
     10 C         135.3881  140.6097  152.9892 C.3     1  UNL1        0.0014
     11 C         134.9618  140.3253  154.3989 C.3     1  UNL1        0.0160
     12 C         135.7323  140.5334  155.6690 C.3     1  UNL1        0.0594
     13 N         135.0217  140.1463  156.9321 N.3     1  UNL1       -0.3218
     14 H         134.0931  139.7910  156.7046 H       1  UNL1        0.1188
     15 H         134.9346  140.9629  157.5371 H       1  UNL1        0.1188
     16 C         139.9453  140.4408  159.6693 C.1     1  UNL1        0.0927
     17 N         141.3531  140.8775  159.9477 N.1     1  UNL1       -0.1942
     18 C         137.6229  139.6526  160.5266 C.3     1  UNL1        0.0616
     19 C         138.8740  140.4950  164.7664 C.ar    1  UNL1       -0.0000
     20 C         138.1498  141.5439  163.9756 C.ar    1  UNL1       -0.0003
     21 C         137.7327  141.2632  162.5624 C.ar    1  UNL1       -0.0042
     22 C         138.0399  139.9335  161.9399 C.ar    1  UNL1       -0.0194
     23 C         138.7641  138.8845  162.7306 C.ar    1  UNL1       -0.0042
     24 C         139.1812  139.1653  164.1439 C.ar    1  UNL1       -0.0003
     25 C         140.1250  141.3373  169.0061 C.ar    1  UNL1        0.0684
     26 C         140.3972  142.3456  167.9294 C.ar    1  UNL1        0.0103
     27 C         139.9801  142.0649  166.5161 C.ar    1  UNL1        0.0007
     28 C         139.2910  140.7758  166.1796 C.ar    1  UNL1        0.0000
     29 C         139.0189  139.7674  167.2562 C.ar    1  UNL1        0.0007
     30 C         139.4359  140.0482  168.6695 C.ar    1  UNL1        0.0103
     31 N         140.9591  141.8989  171.8326 N.1     1  UNL1       -0.1908
     32 C         140.5421  141.6181  170.4194 C.1     1  UNL1        0.1004
@<TRIPOS>BOND
     1    31    32    3
     2    32    25    1
     3    25    26   ar
     4    26    27   ar
     5    27    28   ar
     6    28    19    1
     7    19    20   ar
     8    20    21   ar
     9    21    22   ar
    10    22    18    1
    11     1    18    1
    12     1    16    1
    13    16    17    3
    14     1     2    1
    15     2     3   am
    16     3     4    2
    17     6     3    1
    18     6     7    1
    19     7     8    1
    20     8     9    1
    21     9    10    1
    22    10    11    1
    23    11    12    1
    24    12    13    1
    25    22    23   ar
    26    23    24   ar
    27    28    29   ar
    28    29    30   ar
    29    30    25   ar
    30    24    19   ar
    31    12     6    1
    32     2     5    1
    33    13    14    1
    34    13    15    1
@<TRIPOS>MOLECULE
*****
 32 34 0 0 0
SMALL
GASTEIGER

@<TRIPOS>ATOM
      1 C         138.1358  140.1960  159.6184 C.3     1  UNL1        0.1684
      2 N         139.6125  140.4406  159.7169 N.am    1  UNL1       -0.2935
      3 C         140.1368  141.8440  159.7915 C.2     1  UNL1        0.2240
      4 O         139.1846  143.0027  159.7676 O.2     1  UNL1       -0.2750
      5 H         140.2375  139.6801  159.7326 H       1  UNL1        0.1503
      6 C         141.6134  142.0887  159.8900 C.3     1  UNL1        0.0906
      7 C         142.2996  142.4537  158.6069 C.3     1  UNL1        0.0104
      8 C         143.7505  142.7562  158.3755 C.3     1  UNL1        0.0005
      9 C         144.8734  142.7684  159.3698 C.3     1  UNL1        0.0001
     10 C         144.8230  142.4812  160.8412 C.3     1  UNL1        0.0014
     11 C         143.6371  142.1108  161.6816 C.3     1  UNL1        0.0160
     12 C         142.2087  141.9361  161.2582 C.3     1  UNL1        0.0594
     13 N         141.2486  141.5590  162.3472 N.3     1  UNL1       -0.3218
     14 H         141.7509  141.4813  163.2315 H       1  UNL1        0.1188
     15 H         140.8147  140.6635  162.1229 H       1  UNL1        0.1188
     16 C         137.4209  140.4343  158.3214 C.1     1  UNL1        0.0927
     17 N         136.7060  140.6727  157.0244 N.1     1  UNL1       -0.1942
     18 C         137.3740  139.7130  160.8169 C.3     1  UNL1        0.0616
     19 C         138.9069  140.5830  164.9574 C.ar    1  UNL1       -0.0000
     20 C         139.1932  139.2583  164.3146 C.ar    1  UNL1       -0.0003
     21 C         138.6822  138.9682  162.9344 C.ar    1  UNL1       -0.0042
     22 C         137.8850  140.0029  162.1970 C.ar    1  UNL1       -0.0194
     23 C         137.5986  141.3277  162.8398 C.ar    1  UNL1       -0.0042
     24 C         138.1096  141.6177  164.2200 C.ar    1  UNL1       -0.0003
     25 C         140.4397  141.4530  169.0978 C.ar    1  UNL1        0.0684
     26 C         140.5968  142.4738  168.0101 C.ar    1  UNL1        0.0103
     27 C         140.0859  142.1838  166.6299 C.ar    1  UNL1        0.0007
     28 C         139.4178  140.8729  166.3375 C.ar    1  UNL1        0.0000
     29 C         139.2607  139.8521  167.4253 C.ar    1  UNL1        0.0007
     30 C         139.7716  140.1422  168.8055 C.ar    1  UNL1        0.0103
     31 N         141.4616  142.0330  171.8582 N.1     1  UNL1       -0.1908
     32 C         140.9506  141.7430  170.4781 C.1     1  UNL1        0.1004
@<TRIPOS>BOND
     1    31    32    3
     2    32    25    1
     3    25    26   ar
     4    26    27   ar
     5    27    28   ar
     6    28    19    1
     7    19    20   ar
     8    20    21   ar
     9    21    22   ar
    10    22    18    1
    11     1    18    1
    12     1    16    1
    13    16    17    3
    14     1     2    1
    15     2     3   am
    16     3     4    2
    17     6     3    1
    18     6     7    1
    19     7     8    1
    20     8     9    1
    21     9    10    1
    22    10    11    1
    23    11    12    1
    24    12    13    1
    25    22    23   ar
    26    23    24   ar
    27    28    29   ar
    28    29    30   ar
    29    30    25   ar
    30    24    19   ar
    31    12     6    1
    32     2     5    1
    33    13    14    1
    34    13    15    1
@<TRIPOS>MOLECULE
*****
 32 34 0 0 0
SMALL
GASTEIGER

@<TRIPOS>ATOM
      1 C         142.6084  139.5603  166.8518 C.3     1  UNL1        0.1684
      2 N         141.8420  140.6631  166.1834 N.am    1  UNL1       -0.2935
      3 C         140.3725  140.5063  165.9266 C.2     1  UNL1        0.2240
      4 O         139.6694  139.2468  166.3382 O.2     1  UNL1       -0.2750
      5 H         142.3035  141.4897  165.9132 H       1  UNL1        0.1503
      6 C         139.6061  141.6089  165.2582 C.3     1  UNL1        0.0906
      7 C         138.8797  141.2279  164.0023 C.3     1  UNL1        0.0104
      8 C         138.0351  142.0907  163.1120 C.3     1  UNL1        0.0005
      9 C         137.7085  143.5474  163.2579 C.3     1  UNL1        0.0001
     10 C         138.1456  144.5012  164.3299 C.3     1  UNL1        0.0014
     11 C         139.0174  144.2338  165.5209 C.3     1  UNL1        0.0160
     12 C         139.6673  142.9466  165.9340 C.3     1  UNL1        0.0594
     13 N         140.4870  143.0048  167.1889 N.3     1  UNL1       -0.3218
     14 H         140.4633  143.9519  167.5668 H       1  UNL1        0.1188
     15 H         141.4510  142.7470  166.9776 H       1  UNL1        0.1188
     16 C         142.6643  139.4864  168.3489 C.1     1  UNL1        0.0927
     17 N         142.7201  139.4124  169.8461 N.1     1  UNL1       -0.1942
     18 C         143.3189  138.5316  166.0231 C.3     1  UNL1        0.0616
     19 C         143.2508  138.8215  161.5329 C.ar    1  UNL1       -0.0000
     20 C         144.3480  139.4855  162.3108 C.ar    1  UNL1       -0.0003
     21 C         144.3708  139.3889  163.8075 C.ar    1  UNL1       -0.0042
     22 C         143.2962  138.6283  164.5263 C.ar    1  UNL1       -0.0194
     23 C         142.1989  137.9642  163.7485 C.ar    1  UNL1       -0.0042
     24 C         142.1762  138.0609  162.2517 C.ar    1  UNL1       -0.0003
     25 C         143.1826  139.1115  157.0428 C.ar    1  UNL1        0.0684
     26 C         143.7278  140.2455  157.8594 C.ar    1  UNL1        0.0103
     27 C         143.7506  140.1489  159.3561 C.ar    1  UNL1        0.0007
     28 C         143.2281  138.9182  160.0362 C.ar    1  UNL1        0.0000
     29 C         142.6829  137.7842  159.2196 C.ar    1  UNL1        0.0007
     30 C         142.6602  137.8809  157.7228 C.ar    1  UNL1        0.0103
     31 N         143.1372  139.3048  154.0493 N.1     1  UNL1       -0.1908
     32 C         143.1599  139.2081  155.5460 C.1     1  UNL1        0.1004
@<TRIPOS>BOND
     1    31    32    3
     2    32    25    1
     3    25    26   ar
     4    26    27   ar
     5    27    28   ar
     6    28    19    1
     7    19    20   ar
     8    20    21   ar
     9    21    22   ar
    10    22    18    1
    11     1    18    1
    12     1    16    1
    13    16    17    3
    14     1     2    1
    15     2     3   am
    16     3     4    2
    17     6     3    1
    18     6     7    1
    19     7     8    1
    20     8     9    1
    21     9    10    1
    22    10    11    1
    23    11    12    1
    24    12    13    1
    25    22    23   ar
    26    23    24   ar
    27    28    29   ar
    28    29    30   ar
    29    30    25   ar
    30    24    19   ar
    31    12     6    1
    32     2     5    1
    33    13    14    1
    34    13    15    1
@<TRIPOS>MOLECULE
*****
 32 34 0 0 0
SMALL
GASTEIGER

@<TRIPOS>ATOM
      1 C         139.2740  139.9705  167.5385 C.3     1  UNL1        0.1684
      2 N         140.2959  140.8588  166.8928 N.am    1  UNL1       -0.2935
      3 C         141.5486  140.2667  166.3183 C.2     1  UNL1        0.2240
      4 O         141.7795  138.7863  166.3894 O.2     1  UNL1       -0.2750
      5 H         140.1443  141.8305  166.8461 H       1  UNL1        0.1503
      6 C         142.5704  141.1549  165.6726 C.3     1  UNL1        0.0906
      7 C         143.1338  142.2387  166.5434 C.3     1  UNL1        0.0104
      8 C         144.1597  143.2772  166.1981 C.3     1  UNL1        0.0005
      9 C         144.8755  143.4884  164.8971 C.3     1  UNL1        0.0001
     10 C         144.7423  142.7133  163.6197 C.3     1  UNL1        0.0014
     11 C         143.8603  141.5356  163.3281 C.3     1  UNL1        0.0160
     12 C         142.8937  140.8421  164.2418 C.3     1  UNL1        0.0594
     13 N         142.1525  139.6823  163.6457 N.3     1  UNL1       -0.3218
     14 H         142.4434  139.5548  162.6764 H       1  UNL1        0.1188
     15 H         141.1498  139.8666  163.6783 H       1  UNL1        0.1188
     16 C         139.1478  139.9353  169.0327 C.1     1  UNL1        0.0927
     17 N         139.0217  139.9002  170.5270 N.1     1  UNL1       -0.1942
     18 C         138.3784  139.1175  166.6899 C.3     1  UNL1        0.0616
     19 C         138.6697  139.3186  162.2038 C.ar    1  UNL1       -0.0000
     20 C         139.0645  138.0644  162.9255 C.ar    1  UNL1       -0.0003
     21 C         138.9675  137.9973  164.4209 C.ar    1  UNL1       -0.0042
     22 C         138.4756  139.1845  165.1945 C.ar    1  UNL1       -0.0194
     23 C         138.0807  140.4388  164.4728 C.ar    1  UNL1       -0.0042
     24 C         138.1778  140.5058  162.9774 C.ar    1  UNL1       -0.0003
     25 C         138.9610  139.5198  157.7178 C.ar    1  UNL1        0.0684
     26 C         138.0564  140.4633  158.4537 C.ar    1  UNL1        0.0103
     27 C         137.9592  140.3963  159.9490 C.ar    1  UNL1        0.0007
     28 C         138.7668  139.3857  160.7085 C.ar    1  UNL1        0.0000
     29 C         139.6714  138.4422  159.9726 C.ar    1  UNL1        0.0007
     30 C         139.7685  138.5093  158.4771 C.ar    1  UNL1        0.0103
     31 N         139.1551  139.6540  154.7270 N.1     1  UNL1       -0.1908
     32 C         139.0580  139.5869  156.2223 C.1     1  UNL1        0.1004
@<TRIPOS>BOND
     1    31    32    3
     2    32    25    1
     3    25    26   ar
     4    26    27   ar
     5    27    28   ar
     6    28    19    1
     7    19    20   ar
     8    20    21   ar
     9    21    22   ar
    10    22    18    1
    11     1    18    1
    12     1    16    1
    13    16    17    3
    14     1     2    1
    15     2     3   am
    16     3     4    2
    17     6     3    1
    18     6     7    1
    19     7     8    1
    20     8     9    1
    21     9    10    1
    22    10    11    1
    23    11    12    1
    24    12    13    1
    25    22    23   ar
    26    23    24   ar
    27    28    29   ar
    28    29    30   ar
    29    30    25   ar
    30    24    19   ar
    31    12     6    1
    32     2     5    1
    33    13    14    1
    34    13    15    1
