@<TRIPOS>MOLECULE
*****
 23 25 0 0 0
SMALL
GASTEIGER

@<TRIPOS>ATOM
      1 C         139.7395  142.5142  165.0293 C.3     1  UNL1        0.0977
      2 C         138.3318  142.4377  164.5168 C.3     1  UNL1        0.0233
      3 C         137.8107  143.8377  164.3821 C.3     1  UNL1        0.0189
      4 C         138.8963  144.7796  164.8114 C.3     1  UNL1        0.0689
      5 N         140.0884  143.9617  165.2113 N.3     1  UNL1       -0.2938
      6 H         140.3197  144.1418  166.1883 H       1  UNL1        0.1235
      7 C         141.1352  142.2779  165.5253 C.2     1  UNL1        0.1818
      8 O         142.2515  142.0583  164.5479 O.2     1  UNL1       -0.2903
      9 C         141.4146  142.2613  166.9991 C.2     1  UNL1        0.0183
     10 C         142.8281  142.1779  167.4936 C.2     1  UNL1        0.0005
     11 C         143.1075  142.1612  168.9673 C.2     1  UNL1        0.0204
     12 C         141.9731  142.2280  169.9464 C.2     1  UNL1        0.1007
     13 N         141.9404  142.2297  171.4461 N.2     1  UNL1       -0.1482
     14 N         140.5066  142.3143  171.8783 N.2     1  UNL1       -0.1467
     15 C         139.6530  142.3648  170.6458 C.2     1  UNL1        0.1197
     16 C         140.5594  142.3114  169.4518 C.2     1  UNL1        0.0226
     17 C         140.2802  142.3281  167.9782 C.3     1  UNL1        0.0588
     18 C         139.6824  141.0174  164.9509 C.3     1  UNL1        0.0219
     19 C         138.4615  140.2875  165.4270 C.3     1  UNL1        0.0018
     20 C         137.9884  138.8947  166.9555 C.3     1  UNL1        0.0000
     21 C         138.4789  138.7919  165.5417 C.3     1  UNL1        0.0001
     22 C         138.9693  138.6892  164.1279 C.3     1  UNL1        0.0000
     23 C         138.4962  137.2964  165.6565 C.3     1  UNL1        0.0000
@<TRIPOS>BOND
     1    20    21    1
     2    21    22    1
     3    21    23    1
     4    21    19    1
     5    19    18    1
     6    18     1    1
     7     1     7    1
     8     7     8    2
     9     7     9    1
    10     9    10    2
    11    10    11    1
    12    11    12    2
    13    12    13    1
    14    13    14    2
    15    14    15    1
    16    15    16    2
    17    16    17    1
    18     1     2    1
    19     2     3    1
    20     3     4    1
    21     4     5    1
    22     5     1    1
    23    17     9    1
    24    16    12    1
    25     5     6    1
@<TRIPOS>MOLECULE
*****
 23 25 0 0 0
SMALL
GASTEIGER

@<TRIPOS>ATOM
      1 C         138.5128  139.4978  164.6613 C.3     1  UNL1        0.0977
      2 C         138.4591  140.0709  163.2760 C.3     1  UNL1        0.0233
      3 C         138.6729  138.9502  162.3023 C.3     1  UNL1        0.0189
      4 C         138.8588  137.6846  163.0856 C.3     1  UNL1        0.0689
      5 N         138.7599  138.0230  164.5436 N.3     1  UNL1       -0.2938
      6 H         139.6307  137.7792  165.0154 H       1  UNL1        0.1235
      7 C         138.5150  139.2210  166.1355 C.2     1  UNL1        0.1818
      8 O         137.3084  138.6123  166.7861 O.2     1  UNL1       -0.2903
      9 C         139.7240  139.5530  166.9591 C.2     1  UNL1        0.0183
     10 C         141.0922  139.4705  166.3500 C.2     1  UNL1        0.0005
     11 C         142.3012  139.8025  167.1736 C.2     1  UNL1        0.0204
     12 C         142.1418  140.2169  168.6064 C.2     1  UNL1        0.1007
     13 N         143.1409  140.6012  169.6571 N.2     1  UNL1       -0.1482
     14 N         142.3901  140.9213  170.9156 N.2     1  UNL1       -0.1467
     15 C         140.9270  140.7347  170.6427 C.2     1  UNL1        0.1197
     16 C         140.7735  140.2994  169.2155 C.2     1  UNL1        0.0226
     17 C         139.5646  139.9674  168.3919 C.3     1  UNL1        0.0588
     18 C         138.2662  140.9148  165.0872 C.3     1  UNL1        0.0219
     19 C         138.8766  142.0470  164.3155 C.3     1  UNL1        0.0018
     20 C         137.7824  143.7985  163.8307 C.3     1  UNL1        0.0000
     21 C         138.8156  143.4438  164.8587 C.3     1  UNL1        0.0001
     22 C         139.8487  143.0892  165.8867 C.3     1  UNL1        0.0000
     23 C         138.7545  144.8407  165.4019 C.3     1  UNL1        0.0000
@<TRIPOS>BOND
     1    20    21    1
     2    21    22    1
     3    21    23    1
     4    21    19    1
     5    19    18    1
     6    18     1    1
     7     1     7    1
     8     7     8    2
     9     7     9    1
    10     9    10    2
    11    10    11    1
    12    11    12    2
    13    12    13    1
    14    13    14    2
    15    14    15    1
    16    15    16    2
    17    16    17    1
    18     1     2    1
    19     2     3    1
    20     3     4    1
    21     4     5    1
    22     5     1    1
    23    17     9    1
    24    16    12    1
    25     5     6    1
@<TRIPOS>MOLECULE
*****
 23 25 0 0 0
SMALL
GASTEIGER

@<TRIPOS>ATOM
      1 C         142.5258  139.8557  165.2736 C.3     1  UNL1        0.0977
      2 C         143.5908  138.8599  164.9213 C.3     1  UNL1        0.0233
      3 C         144.7796  139.6155  164.4060 C.3     1  UNL1        0.0189
      4 C         144.4494  141.0783  164.4398 C.3     1  UNL1        0.0689
      5 N         143.0564  141.2268  164.9760 N.3     1  UNL1       -0.2938
      6 H         142.4651  141.6837  164.2817 H       1  UNL1        0.1235
      7 C         141.2961  140.5973  165.7071 C.2     1  UNL1        0.1818
      8 O         140.3534  141.1513  164.6803 O.2     1  UNL1       -0.2903
      9 C         141.0092  140.7848  167.1674 C.2     1  UNL1        0.0183
     10 C         139.7597  140.2102  167.7661 C.2     1  UNL1        0.0005
     11 C         139.4728  140.3977  169.2265 C.2     1  UNL1        0.0204
     12 C         140.4355  141.1600  170.0881 C.2     1  UNL1        0.1007
     13 N         140.4204  141.5039  171.5480 N.2     1  UNL1       -0.1482
     14 N         141.6606  142.2911  171.8516 N.2     1  UNL1       -0.1467
     15 C         142.4421  142.4337  170.5792 C.2     1  UNL1        0.1197
     16 C         141.6850  141.7346  169.4893 C.2     1  UNL1        0.0226
     17 C         141.9718  141.5471  168.0290 C.3     1  UNL1        0.0588
     18 C         141.7380  138.6396  165.6618 C.3     1  UNL1        0.0219
     19 C         141.4539  137.5740  164.6451 C.3     1  UNL1        0.0018
     20 C         141.0126  137.6667  162.5722 C.3     1  UNL1        0.0000
     21 C         140.1960  137.6314  163.8300 C.3     1  UNL1        0.0001
     22 C         139.3794  137.5961  165.0877 C.3     1  UNL1        0.0000
     23 C         138.9381  137.6888  163.0148 C.3     1  UNL1        0.0000
@<TRIPOS>BOND
     1    20    21    1
     2    21    22    1
     3    21    23    1
     4    21    19    1
     5    19    18    1
     6    18     1    1
     7     1     7    1
     8     7     8    2
     9     7     9    1
    10     9    10    2
    11    10    11    1
    12    11    12    2
    13    12    13    1
    14    13    14    2
    15    14    15    1
    16    15    16    2
    17    16    17    1
    18     1     2    1
    19     2     3    1
    20     3     4    1
    21     4     5    1
    22     5     1    1
    23    17     9    1
    24    16    12    1
    25     5     6    1
@<TRIPOS>MOLECULE
*****
 23 25 0 0 0
SMALL
GASTEIGER

@<TRIPOS>ATOM
      1 C         139.5995  139.9557  164.9818 C.3     1  UNL1        0.0977
      2 C         138.4877  139.0642  164.5134 C.3     1  UNL1        0.0233
      3 C         139.0701  137.7144  164.2158 C.3     1  UNL1        0.0189
      4 C         140.5417  137.7714  164.5003 C.3     1  UNL1        0.0689
      5 N         140.8690  139.1566  164.9737 N.3     1  UNL1       -0.2938
      6 H         141.5451  139.5873  164.3430 H       1  UNL1        0.1235
      7 C         140.4846  141.0624  165.4734 C.2     1  UNL1        0.1818
      8 O         141.3912  141.7787  164.5170 O.2     1  UNL1       -0.2903
      9 C         140.4630  141.4529  166.9216 C.2     1  UNL1        0.0183
     10 C         140.4262  142.9019  167.3072 C.2     1  UNL1        0.0005
     11 C         140.4046  143.2924  168.7554 C.2     1  UNL1        0.0204
     12 C         140.4198  142.2337  169.8179 C.2     1  UNL1        0.1007
     13 N         140.4049  142.3145  171.3156 N.2     1  UNL1       -0.1482
     14 N         140.4324  140.9154  171.8556 N.2     1  UNL1       -0.1467
     15 C         140.4644  139.9698  170.6916 C.2     1  UNL1        0.1197
     16 C         140.4566  140.7846  169.4322 C.2     1  UNL1        0.0226
     17 C         140.4782  140.3942  167.9841 C.3     1  UNL1        0.0588
     18 C         138.5151  140.9861  165.0927 C.3     1  UNL1        0.0219
     19 C         137.7377  141.3907  163.8754 C.3     1  UNL1        0.0018
     20 C         137.9693  142.2396  161.9452 C.3     1  UNL1        0.0000
     21 C         137.8584  142.7858  163.3378 C.3     1  UNL1        0.0001
     22 C         137.7476  143.3320  164.7304 C.3     1  UNL1        0.0000
     23 C         137.9792  144.1810  162.8002 C.3     1  UNL1        0.0000
@<TRIPOS>BOND
     1    20    21    1
     2    21    22    1
     3    21    23    1
     4    21    19    1
     5    19    18    1
     6    18     1    1
     7     1     7    1
     8     7     8    2
     9     7     9    1
    10     9    10    2
    11    10    11    1
    12    11    12    2
    13    12    13    1
    14    13    14    2
    15    14    15    1
    16    15    16    2
    17    16    17    1
    18     1     2    1
    19     2     3    1
    20     3     4    1
    21     4     5    1
    22     5     1    1
    23    17     9    1
    24    16    12    1
    25     5     6    1
@<TRIPOS>MOLECULE
*****
 23 25 0 0 0
SMALL
GASTEIGER

@<TRIPOS>ATOM
      1 C         140.3730  141.3010  167.6025 C.3     1  UNL1        0.0977
      2 C         139.5516  140.2466  168.2834 C.3     1  UNL1        0.0233
      3 C         139.3124  140.6864  169.6973 C.3     1  UNL1        0.0189
      4 C         139.9860  142.0127  169.8904 C.3     1  UNL1        0.0689
      5 N         140.6415  142.3926  168.5958 N.3     1  UNL1       -0.2938
      6 H         141.6469  142.4953  168.7339 H       1  UNL1        0.1235
      7 C         141.1733  142.1651  166.6736 C.2     1  UNL1        0.1818
      8 O         142.6663  142.2244  166.8040 O.2     1  UNL1       -0.2903
      9 C         140.4803  142.9697  165.6141 C.2     1  UNL1        0.0183
     10 C         139.3318  143.8619  165.9810 C.2     1  UNL1        0.0005
     11 C         138.6388  144.6666  164.9216 C.2     1  UNL1        0.0204
     12 C         139.0945  144.5789  163.4952 C.2     1  UNL1        0.1007
     13 N         138.6093  145.2484  162.2436 N.2     1  UNL1       -0.1482
     14 N         139.4580  144.7698  161.1031 N.2     1  UNL1       -0.1467
     15 C         140.4678  143.8047  161.6498 C.2     1  UNL1        0.1197
     16 C         140.2431  143.6867  163.1282 C.2     1  UNL1        0.0226
     17 C         140.9360  142.8821  164.1877 C.3     1  UNL1        0.0588
     18 C         140.2718  140.3901  166.4151 C.3     1  UNL1        0.0219
     19 C         138.9486  139.7920  166.0393 C.3     1  UNL1        0.0018
     20 C         139.4067  138.0034  164.9946 C.3     1  UNL1        0.0000
     21 C         138.7213  139.2907  164.6439 C.3     1  UNL1        0.0001
     22 C         138.0359  140.5781  164.2931 C.3     1  UNL1        0.0000
     23 C         138.4940  138.7895  163.2485 C.3     1  UNL1        0.0000
@<TRIPOS>BOND
     1    20    21    1
     2    21    22    1
     3    21    23    1
     4    21    19    1
     5    19    18    1
     6    18     1    1
     7     1     7    1
     8     7     8    2
     9     7     9    1
    10     9    10    2
    11    10    11    1
    12    11    12    2
    13    12    13    1
    14    13    14    2
    15    14    15    1
    16    15    16    2
    17    16    17    1
    18     1     2    1
    19     2     3    1
    20     3     4    1
    21     4     5    1
    22     5     1    1
    23    17     9    1
    24    16    12    1
    25     5     6    1
@<TRIPOS>MOLECULE
*****
 23 25 0 0 0
SMALL
GASTEIGER

@<TRIPOS>ATOM
      1 C         141.1678  139.6272  166.7152 C.3     1  UNL1        0.0977
      2 C         142.6324  139.5058  167.0155 C.3     1  UNL1        0.0233
      3 C         143.2387  138.5825  166.0007 C.3     1  UNL1        0.0189
      4 C         142.1488  138.1332  165.0732 C.3     1  UNL1        0.0689
      5 N         140.8689  138.7788  165.5147 N.3     1  UNL1       -0.2938
      6 H         140.1858  138.0618  165.7590 H       1  UNL1        0.1235
      7 C         139.7016  139.9395  166.6635 C.2     1  UNL1        0.1818
      8 O         138.7819  139.3986  167.7178 O.2     1  UNL1       -0.2903
      9 C         139.1550  140.7927  165.5574 C.2     1  UNL1        0.0183
     10 C         138.1539  140.2239  164.5962 C.2     1  UNL1        0.0005
     11 C         137.6073  141.0771  163.4901 C.2     1  UNL1        0.0204
     12 C         138.0621  142.4991  163.3453 C.2     1  UNL1        0.1007
     13 N         137.7024  143.5727  162.3614 N.2     1  UNL1       -0.1482
     14 N         138.4813  144.8050  162.7145 N.2     1  UNL1       -0.1467
     15 C         139.3224  144.4930  163.9167 C.2     1  UNL1        0.1197
     16 C         139.0634  143.0679  164.3065 C.2     1  UNL1        0.0226
     17 C         139.6098  142.2147  165.4126 C.3     1  UNL1        0.0588
     18 C         141.1601  140.5408  167.9048 C.3     1  UNL1        0.0219
     19 C         142.2179  141.5947  168.0479 C.3     1  UNL1        0.0018
     20 C         143.6224  142.2168  169.5109 C.3     1  UNL1        0.0000
     21 C         142.1865  142.5350  169.2162 C.3     1  UNL1        0.0001
     22 C         140.7506  142.8533  168.9214 C.3     1  UNL1        0.0000
     23 C         142.1551  143.4754  170.3844 C.3     1  UNL1        0.0000
@<TRIPOS>BOND
     1    20    21    1
     2    21    22    1
     3    21    23    1
     4    21    19    1
     5    19    18    1
     6    18     1    1
     7     1     7    1
     8     7     8    2
     9     7     9    1
    10     9    10    2
    11    10    11    1
    12    11    12    2
    13    12    13    1
    14    13    14    2
    15    14    15    1
    16    15    16    2
    17    16    17    1
    18     1     2    1
    19     2     3    1
    20     3     4    1
    21     4     5    1
    22     5     1    1
    23    17     9    1
    24    16    12    1
    25     5     6    1
@<TRIPOS>MOLECULE
*****
 23 25 0 0 0
SMALL
GASTEIGER

@<TRIPOS>ATOM
      1 C         140.8396  139.5899  165.1705 C.3     1  UNL1        0.0977
      2 C         141.7467  138.4712  164.7509 C.3     1  UNL1        0.0233
      3 C         140.9060  137.2471  164.5401 C.3     1  UNL1        0.0189
      4 C         139.4794  137.6090  164.8293 C.3     1  UNL1        0.0689
      5 N         139.4383  139.0569  165.2190 N.3     1  UNL1       -0.2938
      6 H         139.0648  139.1508  166.1634 H       1  UNL1        0.1235
      7 C         140.1974  140.8761  165.5986 C.2     1  UNL1        0.1818
      8 O         139.4602  141.7157  164.5980 O.2     1  UNL1       -0.2903
      9 C         140.2925  141.3225  167.0275 C.2     1  UNL1        0.0183
     10 C         140.4031  142.7829  167.3512 C.2     1  UNL1        0.0005
     11 C         140.4982  143.2293  168.7802 C.2     1  UNL1        0.0204
     12 C         140.4827  142.2152  169.8853 C.2     1  UNL1        0.1007
     13 N         140.5606  142.3548  171.3767 N.2     1  UNL1       -0.1482
     14 N         140.4981  140.9806  171.9748 N.2     1  UNL1       -0.1467
     15 C         140.3817  139.9917  170.8529 C.2     1  UNL1        0.1197
     16 C         140.3721  140.7547  169.5615 C.2     1  UNL1        0.0226
     17 C         140.2770  140.3084  168.1327 C.3     1  UNL1        0.0588
     18 C         142.1067  140.3917  165.2115 C.3     1  UNL1        0.0219
     19 C         142.8111  140.7469  163.9357 C.3     1  UNL1        0.0018
     20 C         144.5799  140.3512  162.8334 C.3     1  UNL1        0.0000
     21 C         144.2213  141.2566  163.9744 C.3     1  UNL1        0.0001
     22 C         143.8628  142.1619  165.1154 C.3     1  UNL1        0.0000
     23 C         145.6316  141.7663  164.0131 C.3     1  UNL1        0.0000
@<TRIPOS>BOND
     1    20    21    1
     2    21    22    1
     3    21    23    1
     4    21    19    1
     5    19    18    1
     6    18     1    1
     7     1     7    1
     8     7     8    2
     9     7     9    1
    10     9    10    2
    11    10    11    1
    12    11    12    2
    13    12    13    1
    14    13    14    2
    15    14    15    1
    16    15    16    2
    17    16    17    1
    18     1     2    1
    19     2     3    1
    20     3     4    1
    21     4     5    1
    22     5     1    1
    23    17     9    1
    24    16    12    1
    25     5     6    1
@<TRIPOS>MOLECULE
*****
 23 25 0 0 0
SMALL
GASTEIGER

@<TRIPOS>ATOM
      1 C         140.9732  139.7024  167.6028 C.3     1  UNL1        0.0977
      2 C         142.3831  139.4685  168.0585 C.3     1  UNL1        0.0233
      3 C         142.3985  139.5098  169.5577 C.3     1  UNL1        0.0189
      4 C         140.9982  139.7691  170.0287 C.3     1  UNL1        0.0689
      5 N         140.1173  139.8882  168.8206 N.3     1  UNL1       -0.2938
      6 H         139.6811  140.8099  168.7997 H       1  UNL1        0.1235
      7 C         139.6860  139.9063  166.8601 C.2     1  UNL1        0.1818
      8 O         138.6263  138.8452  166.8906 O.2     1  UNL1       -0.2903
      9 C         139.4586  141.1715  166.0870 C.2     1  UNL1        0.0183
     10 C         140.0115  142.4702  166.5944 C.2     1  UNL1        0.0005
     11 C         139.7840  143.7354  165.8213 C.2     1  UNL1        0.0204
     12 C         139.0036  143.7017  164.5408 C.2     1  UNL1        0.1007
     13 N         138.6211  144.7793  163.5699 N.2     1  UNL1       -0.1482
     14 N         137.8317  144.1465  162.4625 N.2     1  UNL1       -0.1467
     15 C         137.7264  142.6778  162.7489 C.2     1  UNL1        0.1197
     16 C         138.4507  142.4029  164.0334 C.2     1  UNL1        0.0226
     17 C         138.6781  141.1378  164.8065 C.3     1  UNL1        0.0588
     18 C         141.5600  139.5592  166.2298 C.3     1  UNL1        0.0219
     19 C         142.8685  140.2149  165.9012 C.3     1  UNL1        0.0018
     20 C         142.2875  140.3677  163.8668 C.3     1  UNL1        0.0000
     21 C         142.9267  141.2927  164.8597 C.3     1  UNL1        0.0001
     22 C         143.5658  142.2177  165.8526 C.3     1  UNL1        0.0000
     23 C         142.9848  142.3706  163.8181 C.3     1  UNL1        0.0000
@<TRIPOS>BOND
     1    20    21    1
     2    21    22    1
     3    21    23    1
     4    21    19    1
     5    19    18    1
     6    18     1    1
     7     1     7    1
     8     7     8    2
     9     7     9    1
    10     9    10    2
    11    10    11    1
    12    11    12    2
    13    12    13    1
    14    13    14    2
    15    14    15    1
    16    15    16    2
    17    16    17    1
    18     1     2    1
    19     2     3    1
    20     3     4    1
    21     4     5    1
    22     5     1    1
    23    17     9    1
    24    16    12    1
    25     5     6    1
@<TRIPOS>MOLECULE
*****
 23 25 0 0 0
SMALL
GASTEIGER

@<TRIPOS>ATOM
      1 C         142.7251  141.0793  166.1579 C.3     1  UNL1        0.0977
      2 C         142.3935  139.7335  166.7314 C.3     1  UNL1        0.0233
      3 C         142.7449  138.6943  165.7084 C.3     1  UNL1        0.0189
      4 C         143.2935  139.3979  164.5026 C.3     1  UNL1        0.0689
      5 N         143.2813  140.8718  164.7804 N.3     1  UNL1       -0.2938
      6 H         142.6952  141.3484  164.0950 H       1  UNL1        0.1235
      7 C         142.9502  142.5319  165.8592 C.2     1  UNL1        0.1818
      8 O         144.1098  143.2540  166.4785 O.2     1  UNL1       -0.2903
      9 C         142.0154  143.2624  164.9412 C.2     1  UNL1        0.0183
     10 C         142.5407  144.3365  164.0356 C.2     1  UNL1        0.0005
     11 C         141.6060  145.0670  163.1175 C.2     1  UNL1        0.0204
     12 C         140.1460  144.7233  163.1052 C.2     1  UNL1        0.1007
     13 N         138.9934  145.2676  162.3145 N.2     1  UNL1       -0.1482
     14 N         137.7557  144.5299  162.7315 N.2     1  UNL1       -0.1467
     15 C         138.1434  143.5296  163.7799 C.2     1  UNL1        0.1197
     16 C         139.6207  143.6492  164.0109 C.2     1  UNL1        0.0226
     17 C         140.5554  142.9187  164.9289 C.3     1  UNL1        0.0588
     18 C         142.2159  141.5904  167.4730 C.3     1  UNL1        0.0219
     19 C         140.9482  141.0366  168.0529 C.3     1  UNL1        0.0018
     20 C         139.4107  140.5167  169.4189 C.3     1  UNL1        0.0000
     21 C         140.3113  141.7023  169.2366 C.3     1  UNL1        0.0001
     22 C         141.2119  142.8880  169.0543 C.3     1  UNL1        0.0000
     23 C         139.6744  142.3681  170.4203 C.3     1  UNL1        0.0000
@<TRIPOS>BOND
     1    20    21    1
     2    21    22    1
     3    21    23    1
     4    21    19    1
     5    19    18    1
     6    18     1    1
     7     1     7    1
     8     7     8    2
     9     7     9    1
    10     9    10    2
    11    10    11    1
    12    11    12    2
    13    12    13    1
    14    13    14    2
    15    14    15    1
    16    15    16    2
    17    16    17    1
    18     1     2    1
    19     2     3    1
    20     3     4    1
    21     4     5    1
    22     5     1    1
    23    17     9    1
    24    16    12    1
    25     5     6    1
