@<TRIPOS>MOLECULE
*****
 33 37 0 0 0
SMALL
GASTEIGER

@<TRIPOS>ATOM
      1 C         142.4492  143.3368  162.8792 C.3     1  UNL1        0.0545
      2 C         143.9193  143.5791  163.0531 C.3     1  UNL1        0.0162
      3 C         144.5584  142.2827  163.4543 C.3     1  UNL1        0.0095
      4 C         145.8619  141.6312  163.8097 C.3     1  UNL1        0.0005
      5 C         145.5925  140.1851  164.1033 C.3     1  UNL1        0.0005
      6 C         144.1224  139.9428  163.9294 C.3     1  UNL1        0.0087
      7 C         143.4833  141.2392  163.5282 C.3     1  UNL1        0.0704
      8 C         142.1798  141.8907  163.1728 C.3     1  UNL1        0.0243
      9 C         142.4083  140.1958  163.6022 C.2     1  UNL1        0.2250
     10 O         142.1910  139.2598  162.4503 O.2     1  UNL1       -0.2749
     11 N         141.5504  140.0883  164.8280 N.am    1  UNL1       -0.2750
     12 C         140.4753  139.0449  164.9019 C.3     1  UNL1        0.1000
     13 C         139.6175  138.9375  166.1277 C.3     1  UNL1        0.0670
     14 C         139.8348  139.8735  167.2795 C.ar    1  UNL1        0.0588
     15 N         138.9769  139.7660  168.5054 N.ar    1  UNL1       -0.2421
     16 C         139.1941  140.7020  169.6572 C.ar    1  UNL1        0.1736
     17 C         140.2692  141.7455  169.5832 C.ar    1  UNL1        0.3087
     18 C         141.1271  141.8529  168.3574 C.ar    1  UNL1        0.0755
     19 C         140.9098  140.9169  167.2056 C.ar    1  UNL1        0.0174
     20 C         141.7676  141.0243  165.9798 C.3     1  UNL1        0.1215
     21 N         140.4865  142.6815  170.7351 N.pl3   1  UNL1        0.0825
     22 O         140.7893  144.1281  170.4791 O.2     1  UNL1        0.0415
     23 O         140.4009  142.1708  172.1429 O.co2   1  UNL1       -0.5760
     24 N         141.4279  144.3609  162.4814 N.3     1  UNL1       -0.2975
     25 H         141.8617  145.2750  162.6103 H       1  UNL1        0.1232
     26 C         138.8396  144.1457  162.4140 C.3     1  UNL1        0.1591
     27 C         137.5135  144.1933  163.1133 C.3     1  UNL1        0.1729
     28 O         137.4495  144.5036  164.5795 O.3     1  UNL1       -0.3511
     29 C         138.7116  144.7664  165.3463 C.3     1  UNL1        0.1437
     30 C         140.0378  144.7189  164.6469 C.3     1  UNL1        0.0503
     31 C         140.1017  144.4085  163.1807 C.3     1  UNL1        0.0865
     32 C         138.5395  142.4664  160.4544 C.3     1  UNL1        0.1742
     33 O         138.9036  143.8354  160.9479 O.3     1  UNL1       -0.3496
@<TRIPOS>UNITY_ATOM_ATTR
21 1
charge 1
23 1
charge -1
@<TRIPOS>BOND
     1    32    33    1
     2    33    26    1
     3    26    27    1
     4    27    28    1
     5    28    29    1
     6    29    30    1
     7    30    31    1
     8    31    24    1
     9     1    24    1
    10     1     2    1
    11     3     2    1
    12     3     4    1
    13     4     5    1
    14     5     6    1
    15     6     7    1
    16     7     9    1
    17     9    10    2
    18     9    11   am
    19    11    12    1
    20    12    13    1
    21    13    14    1
    22    14    15   ar
    23    15    16   ar
    24    16    17   ar
    25    17    21    1
    26    21    22    2
    27    21    23    1
    28    17    18   ar
    29    18    19   ar
    30    19    20    1
    31     7     8    1
    32    31    26    1
    33     8     1    1
    34     7     3    1
    35    20    11    1
    36    19    14   ar
    37    24    25    1
@<TRIPOS>MOLECULE
*****
 33 37 0 0 0
SMALL
GASTEIGER

@<TRIPOS>ATOM
      1 C         139.4734  139.1373  166.2577 C.3     1  UNL1        0.0545
      2 C         138.4447  139.1832  167.3483 C.3     1  UNL1        0.0162
      3 C         139.0466  139.8947  168.5236 C.3     1  UNL1        0.0095
      4 C         138.7829  140.3629  169.9241 C.3     1  UNL1        0.0005
      5 C         140.0206  141.0461  170.4253 C.3     1  UNL1        0.0005
      6 C         141.0494  141.0002  169.3347 C.3     1  UNL1        0.0087
      7 C         140.4475  140.2886  168.1594 C.3     1  UNL1        0.0704
      8 C         140.7112  139.8205  166.7589 C.3     1  UNL1        0.0243
      9 C         141.8482  140.6825  167.7951 C.2     1  UNL1        0.2250
     10 O         143.0108  140.0831  168.5293 O.2     1  UNL1       -0.2749
     11 N         142.0864  141.6757  166.6965 N.am    1  UNL1       -0.2750
     12 C         143.4871  142.0696  166.3322 C.3     1  UNL1        0.1000
     13 C         143.7253  143.0628  165.2337 C.3     1  UNL1        0.0670
     14 C         142.5626  143.6622  164.4995 C.ar    1  UNL1        0.0588
     15 N         142.8008  144.6554  163.4009 N.ar    1  UNL1       -0.2421
     16 C         141.6382  145.2548  162.6667 C.ar    1  UNL1        0.1736
     17 C         140.2374  144.8609  163.0311 C.ar    1  UNL1        0.3087
     18 C         139.9993  143.8677  164.1296 C.ar    1  UNL1        0.0755
     19 C         141.1619  143.2683  164.8638 C.ar    1  UNL1        0.0174
     20 C         140.9238  142.2751  165.9623 C.3     1  UNL1        0.1215
     21 N         139.0748  145.4603  162.2969 N.pl3   1  UNL1        0.0825
     22 O         137.6949  144.9082  162.4990 O.2     1  UNL1        0.0415
     23 O         139.2922  146.6119  161.3605 O.co2   1  UNL1       -0.5760
     24 N         139.2957  138.5171  164.9035 N.3     1  UNL1       -0.2975
     25 H         140.2211  138.2242  164.5899 H       1  UNL1        0.1232
     26 C         138.8657  138.8672  162.3653 C.3     1  UNL1        0.1591
     27 C         138.2626  139.6659  161.2479 C.3     1  UNL1        0.1729
     28 O         137.4863  140.9129  161.5514 O.3     1  UNL1       -0.3511
     29 C         137.3131  141.3614  162.9724 C.3     1  UNL1        0.1437
     30 C         137.9162  140.5628  164.0897 C.3     1  UNL1        0.0503
     31 C         138.6926  139.3157  163.7861 C.3     1  UNL1        0.0865
     32 C         141.1386  137.6711  161.9738 C.3     1  UNL1        0.1742
     33 O         139.6420  137.6202  162.0618 O.3     1  UNL1       -0.3496
@<TRIPOS>UNITY_ATOM_ATTR
21 1
charge 1
23 1
charge -1
@<TRIPOS>BOND
     1    32    33    1
     2    33    26    1
     3    26    27    1
     4    27    28    1
     5    28    29    1
     6    29    30    1
     7    30    31    1
     8    31    24    1
     9     1    24    1
    10     1     2    1
    11     3     2    1
    12     3     4    1
    13     4     5    1
    14     5     6    1
    15     6     7    1
    16     7     9    1
    17     9    10    2
    18     9    11   am
    19    11    12    1
    20    12    13    1
    21    13    14    1
    22    14    15   ar
    23    15    16   ar
    24    16    17   ar
    25    17    21    1
    26    21    22    2
    27    21    23    1
    28    17    18   ar
    29    18    19   ar
    30    19    20    1
    31     7     8    1
    32    31    26    1
    33     8     1    1
    34     7     3    1
    35    20    11    1
    36    19    14   ar
    37    24    25    1
@<TRIPOS>MOLECULE
*****
 33 37 0 0 0
SMALL
GASTEIGER

@<TRIPOS>ATOM
      1 C         141.1308  142.0067  162.0145 C.3     1  UNL1        0.0545
      2 C         140.9165  143.4856  161.8844 C.3     1  UNL1        0.0162
      3 C         139.6117  143.8245  162.5421 C.3     1  UNL1        0.0095
      4 C         138.6728  144.9480  162.8682 C.3     1  UNL1        0.0005
      5 C         137.5004  144.3729  163.6064 C.3     1  UNL1        0.0005
      6 C         137.7147  142.8940  163.7365 C.3     1  UNL1        0.0087
      7 C         139.0195  142.5551  163.0787 C.3     1  UNL1        0.0704
      8 C         139.9584  141.4316  162.7526 C.3     1  UNL1        0.0243
      9 C         138.4274  141.2857  163.6153 C.2     1  UNL1        0.2250
     10 O         137.5117  140.4639  162.7573 O.2     1  UNL1       -0.2749
     11 N         138.7511  140.8379  165.0099 N.am    1  UNL1       -0.2750
     12 C         138.1590  139.5685  165.5465 C.3     1  UNL1        0.1000
     13 C         138.4826  139.1208  166.9410 C.3     1  UNL1        0.0670
     14 C         139.3984  139.9425  167.7990 C.ar    1  UNL1        0.0588
     15 N         139.7221  139.4948  169.1936 N.ar    1  UNL1       -0.2421
     16 C         140.6378  140.3165  170.0516 C.ar    1  UNL1        0.1736
     17 C         141.2299  141.5860  169.5149 C.ar    1  UNL1        0.3087
     18 C         140.9063  142.0337  168.1204 C.ar    1  UNL1        0.0755
     19 C         139.9905  141.2120  167.2624 C.ar    1  UNL1        0.0174
     20 C         139.6668  141.6596  165.8679 C.3     1  UNL1        0.1215
     21 N         142.1457  142.4077  170.3729 N.pl3   1  UNL1        0.0825
     22 O         141.9030  142.5052  171.8499 O.2     1  UNL1        0.0415
     23 O         143.3043  143.1321  169.7538 O.co2   1  UNL1       -0.5760
     24 N         142.3104  141.2378  161.4973 N.3     1  UNL1       -0.2975
     25 H         141.9487  140.3613  161.1214 H       1  UNL1        0.1232
     26 C         144.5601  141.8492  162.6439 C.3     1  UNL1        0.1591
     27 C         145.6863  141.4920  163.5681 C.3     1  UNL1        0.1729
     28 O         145.6889  140.1663  164.2699 O.3     1  UNL1       -0.3511
     29 C         144.5653  139.1978  164.0475 C.3     1  UNL1        0.1437
     30 C         143.4391  139.5549  163.1233 C.3     1  UNL1        0.0503
     31 C         143.4365  140.8807  162.4215 C.3     1  UNL1        0.0865
     32 C         144.1981  144.4214  162.6951 C.3     1  UNL1        0.1742
     33 O         144.5575  143.1748  161.9421 O.3     1  UNL1       -0.3496
@<TRIPOS>UNITY_ATOM_ATTR
21 1
charge 1
23 1
charge -1
@<TRIPOS>BOND
     1    32    33    1
     2    33    26    1
     3    26    27    1
     4    27    28    1
     5    28    29    1
     6    29    30    1
     7    30    31    1
     8    31    24    1
     9     1    24    1
    10     1     2    1
    11     3     2    1
    12     3     4    1
    13     4     5    1
    14     5     6    1
    15     6     7    1
    16     7     9    1
    17     9    10    2
    18     9    11   am
    19    11    12    1
    20    12    13    1
    21    13    14    1
    22    14    15   ar
    23    15    16   ar
    24    16    17   ar
    25    17    21    1
    26    21    22    2
    27    21    23    1
    28    17    18   ar
    29    18    19   ar
    30    19    20    1
    31     7     8    1
    32    31    26    1
    33     8     1    1
    34     7     3    1
    35    20    11    1
    36    19    14   ar
    37    24    25    1
@<TRIPOS>MOLECULE
*****
 33 37 0 0 0
SMALL
GASTEIGER

@<TRIPOS>ATOM
      1 C         140.2223  141.8471  161.4275 C.3     1  UNL1        0.0545
      2 C         138.8068  141.3866  161.2425 C.3     1  UNL1        0.0162
      3 C         138.7096  139.9753  161.7412 C.3     1  UNL1        0.0095
      4 C         137.7746  138.8185  161.9351 C.3     1  UNL1        0.0005
      5 C         138.5522  137.6917  162.5481 C.3     1  UNL1        0.0005
      6 C         139.9678  138.1522  162.7331 C.3     1  UNL1        0.0087
      7 C         140.0650  139.5635  162.2344 C.3     1  UNL1        0.0704
      8 C         140.9999  140.7204  162.0406 C.3     1  UNL1        0.0243
      9 C         141.4204  139.1518  162.7277 C.2     1  UNL1        0.2250
     10 O         142.4643  138.6901  161.7545 O.2     1  UNL1       -0.2749
     11 N         141.7320  139.2017  164.1942 N.am    1  UNL1       -0.2750
     12 C         143.0874  138.7899  164.6874 C.3     1  UNL1        0.1000
     13 C         143.3989  138.8398  166.1538 C.3     1  UNL1        0.0670
     14 C         142.3550  139.3015  167.1270 C.ar    1  UNL1        0.0588
     15 N         142.6665  139.3514  168.5935 N.ar    1  UNL1       -0.2421
     16 C         141.6226  139.8130  169.5667 C.ar    1  UNL1        0.1736
     17 C         140.2671  140.2248  169.0734 C.ar    1  UNL1        0.3087
     18 C         139.9556  140.1748  167.6070 C.ar    1  UNL1        0.0755
     19 C         140.9996  139.7132  166.6338 C.ar    1  UNL1        0.0174
     20 C         140.6881  139.6633  165.1674 C.3     1  UNL1        0.1215
     21 N         139.2232  140.6864  170.0466 N.pl3   1  UNL1        0.0825
     22 O         138.0932  139.7746  170.4230 O.2     1  UNL1        0.0415
     23 O         139.3093  142.0599  170.6434 O.co2   1  UNL1       -0.5760
     24 N         140.7650  143.1973  161.0634 N.3     1  UNL1       -0.2975
     25 H         141.1885  143.1052  160.1400 H       1  UNL1        0.1232
     26 C         141.3494  144.8502  162.9808 C.3     1  UNL1        0.1591
     27 C         142.3688  145.5109  163.8607 C.3     1  UNL1        0.1729
     28 O         143.8232  145.1796  163.7031 O.3     1  UNL1       -0.3511
     29 C         144.2583  144.1874  162.6656 C.3     1  UNL1        0.1437
     30 C         143.2389  143.5267  161.7857 C.3     1  UNL1        0.0503
     31 C         141.7844  143.8581  161.9433 C.3     1  UNL1        0.0865
     32 C         139.1123  144.5992  164.2778 C.3     1  UNL1        0.1742
     33 O         139.8950  145.1815  163.1384 O.3     1  UNL1       -0.3496
@<TRIPOS>UNITY_ATOM_ATTR
21 1
charge 1
23 1
charge -1
@<TRIPOS>BOND
     1    32    33    1
     2    33    26    1
     3    26    27    1
     4    27    28    1
     5    28    29    1
     6    29    30    1
     7    30    31    1
     8    31    24    1
     9     1    24    1
    10     1     2    1
    11     3     2    1
    12     3     4    1
    13     4     5    1
    14     5     6    1
    15     6     7    1
    16     7     9    1
    17     9    10    2
    18     9    11   am
    19    11    12    1
    20    12    13    1
    21    13    14    1
    22    14    15   ar
    23    15    16   ar
    24    16    17   ar
    25    17    21    1
    26    21    22    2
    27    21    23    1
    28    17    18   ar
    29    18    19   ar
    30    19    20    1
    31     7     8    1
    32    31    26    1
    33     8     1    1
    34     7     3    1
    35    20    11    1
    36    19    14   ar
    37    24    25    1
@<TRIPOS>MOLECULE
*****
 33 37 0 0 0
SMALL
GASTEIGER

@<TRIPOS>ATOM
      1 C         141.5872  141.7771  162.6140 C.3     1  UNL1        0.0545
      2 C         141.4131  143.2268  162.2704 C.3     1  UNL1        0.0162
      3 C         140.0073  143.6195  162.6160 C.3     1  UNL1        0.0095
      4 C         139.0308  144.7581  162.6173 C.3     1  UNL1        0.0005
      5 C         137.7325  144.2547  163.1752 C.3     1  UNL1        0.0005
      6 C         137.9067  142.8050  163.5187 C.3     1  UNL1        0.0087
      7 C         139.3125  142.4124  163.1731 C.3     1  UNL1        0.0704
      8 C         140.2890  141.2738  163.1718 C.3     1  UNL1        0.0243
      9 C         138.6178  141.2054  163.7302 C.2     1  UNL1        0.2250
     10 O         137.6944  140.4038  162.8613 O.2     1  UNL1       -0.2749
     11 N         138.8464  140.7999  165.1562 N.am    1  UNL1       -0.2750
     12 C         138.1516  139.5928  165.7133 C.3     1  UNL1        0.1000
     13 C         138.3802  139.1874  167.1392 C.3     1  UNL1        0.0670
     14 C         139.3036  139.9890  168.0080 C.ar    1  UNL1        0.0588
     15 N         139.5322  139.5835  169.4340 N.ar    1  UNL1       -0.2421
     16 C         140.4555  140.3851  170.3029 C.ar    1  UNL1        0.1736
     17 C         141.1502  141.5922  169.7457 C.ar    1  UNL1        0.3087
     18 C         140.9216  141.9976  168.3198 C.ar    1  UNL1        0.0755
     19 C         139.9983  141.1960  167.4510 C.ar    1  UNL1        0.0174
     20 C         139.7697  141.6015  166.0250 C.3     1  UNL1        0.1215
     21 N         142.0735  142.3938  170.6146 N.pl3   1  UNL1        0.0825
     22 O         143.1689  143.2088  169.9934 O.2     1  UNL1        0.0415
     23 O         141.9015  142.3803  172.1047 O.co2   1  UNL1       -0.5760
     24 N         142.8397  140.9720  162.4316 N.3     1  UNL1       -0.2975
     25 H         143.6133  141.6357  162.3924 H       1  UNL1        0.1232
     26 C         142.8253  138.5855  161.4050 C.3     1  UNL1        0.1591
     27 C         142.9695  137.6816  160.2166 C.3     1  UNL1        0.1729
     28 O         143.2724  138.2606  158.8664 O.3     1  UNL1       -0.3511
     29 C         143.4311  139.7434  158.7045 C.3     1  UNL1        0.1437
     30 C         143.2869  140.6472  159.8930 C.3     1  UNL1        0.0503
     31 C         142.9840  140.0682  161.2432 C.3     1  UNL1        0.0865
     32 C         141.1744  137.4083  163.0295 C.3     1  UNL1        0.1742
     33 O         142.5224  138.0065  162.7551 O.3     1  UNL1       -0.3496
@<TRIPOS>UNITY_ATOM_ATTR
21 1
charge 1
23 1
charge -1
@<TRIPOS>BOND
     1    32    33    1
     2    33    26    1
     3    26    27    1
     4    27    28    1
     5    28    29    1
     6    29    30    1
     7    30    31    1
     8    31    24    1
     9     1    24    1
    10     1     2    1
    11     3     2    1
    12     3     4    1
    13     4     5    1
    14     5     6    1
    15     6     7    1
    16     7     9    1
    17     9    10    2
    18     9    11   am
    19    11    12    1
    20    12    13    1
    21    13    14    1
    22    14    15   ar
    23    15    16   ar
    24    16    17   ar
    25    17    21    1
    26    21    22    2
    27    21    23    1
    28    17    18   ar
    29    18    19   ar
    30    19    20    1
    31     7     8    1
    32    31    26    1
    33     8     1    1
    34     7     3    1
    35    20    11    1
    36    19    14   ar
    37    24    25    1
@<TRIPOS>MOLECULE
*****
 33 37 0 0 0
SMALL
GASTEIGER

@<TRIPOS>ATOM
      1 C         138.7387  140.9190  162.2376 C.3     1  UNL1        0.0545
      2 C         138.1224  139.5691  162.4564 C.3     1  UNL1        0.0162
      3 C         139.1856  138.6550  162.9891 C.3     1  UNL1        0.0095
      4 C         139.4618  137.2557  163.4536 C.3     1  UNL1        0.0005
      5 C         140.9060  137.1759  163.8512 C.3     1  UNL1        0.0005
      6 C         141.5223  138.5258  163.6325 C.3     1  UNL1        0.0087
      7 C         140.4591  139.4399  163.0997 C.3     1  UNL1        0.0704
      8 C         140.1829  140.8392  162.6352 C.3     1  UNL1        0.0243
      9 C         141.7325  140.2249  163.2102 C.2     1  UNL1        0.2250
     10 O         142.6160  140.3937  162.0098 O.2     1  UNL1       -0.2749
     11 N         142.1224  140.8410  164.5211 N.am    1  UNL1       -0.2750
     12 C         143.3959  141.6260  164.6316 C.3     1  UNL1        0.1000
     13 C         143.7857  142.2420  165.9424 C.3     1  UNL1        0.0670
     14 C         142.9022  142.0732  167.1428 C.ar    1  UNL1        0.0588
     15 N         143.2921  142.6893  168.4537 N.ar    1  UNL1       -0.2421
     16 C         142.4086  142.5205  169.6541 C.ar    1  UNL1        0.1736
     17 C         141.1351  141.7355  169.5435 C.ar    1  UNL1        0.3087
     18 C         140.7453  141.1194  168.2326 C.ar    1  UNL1        0.0755
     19 C         141.6288  141.2882  167.0323 C.ar    1  UNL1        0.0174
     20 C         141.2389  140.6722  165.7214 C.3     1  UNL1        0.1215
     21 N         140.2516  141.5666  170.7439 N.pl3   1  UNL1        0.0825
     22 O         140.6113  142.2315  172.0394 O.2     1  UNL1        0.0415
     23 O         139.0082  140.7328  170.6486 O.co2   1  UNL1       -0.5760
     24 N         138.0345  142.1353  161.7133 N.3     1  UNL1       -0.2975
     25 H         137.6104  141.8698  160.8244 H       1  UNL1        0.1232
     26 C         138.8360  144.4745  162.5106 C.3     1  UNL1        0.1591
     27 C         139.6054  145.7381  162.2629 C.3     1  UNL1        0.1729
     28 O         140.3427  145.9262  160.9702 O.3     1  UNL1       -0.3511
     29 C         140.3106  144.8506  159.9252 C.3     1  UNL1        0.1437
     30 C         139.5412  143.5869  160.1728 C.3     1  UNL1        0.0503
     31 C         138.8039  143.3990  161.4656 C.3     1  UNL1        0.0865
     32 C         138.7080  144.7594  165.0898 C.3     1  UNL1        0.1742
     33 O         138.0987  144.2865  163.8032 O.3     1  UNL1       -0.3496
@<TRIPOS>UNITY_ATOM_ATTR
21 1
charge 1
23 1
charge -1
@<TRIPOS>BOND
     1    32    33    1
     2    33    26    1
     3    26    27    1
     4    27    28    1
     5    28    29    1
     6    29    30    1
     7    30    31    1
     8    31    24    1
     9     1    24    1
    10     1     2    1
    11     3     2    1
    12     3     4    1
    13     4     5    1
    14     5     6    1
    15     6     7    1
    16     7     9    1
    17     9    10    2
    18     9    11   am
    19    11    12    1
    20    12    13    1
    21    13    14    1
    22    14    15   ar
    23    15    16   ar
    24    16    17   ar
    25    17    21    1
    26    21    22    2
    27    21    23    1
    28    17    18   ar
    29    18    19   ar
    30    19    20    1
    31     7     8    1
    32    31    26    1
    33     8     1    1
    34     7     3    1
    35    20    11    1
    36    19    14   ar
    37    24    25    1
@<TRIPOS>MOLECULE
*****
 33 37 0 0 0
SMALL
GASTEIGER

@<TRIPOS>ATOM
      1 C         139.2873  138.2377  164.8287 C.3     1  UNL1        0.0545
      2 C         138.3548  138.5908  165.9493 C.3     1  UNL1        0.0162
      3 C         139.1423  139.3247  166.9938 C.3     1  UNL1        0.0095
      4 C         139.0528  139.9964  168.3320 C.3     1  UNL1        0.0005
      5 C         140.4167  140.5121  168.6840 C.3     1  UNL1        0.0005
      6 C         141.3492  140.1590  167.5634 C.3     1  UNL1        0.0087
      7 C         140.5616  139.4251  166.5188 C.3     1  UNL1        0.0704
      8 C         140.6512  138.7534  165.1807 C.3     1  UNL1        0.0243
      9 C         141.9808  139.5256  166.0438 C.2     1  UNL1        0.2250
     10 O         143.0345  138.6370  166.6355 O.2     1  UNL1       -0.2749
     11 N         142.3465  140.5147  164.9769 N.am    1  UNL1       -0.2750
     12 C         143.7657  140.6152  164.5019 C.3     1  UNL1        0.1000
     13 C         144.1312  141.6043  163.4351 C.3     1  UNL1        0.0670
     14 C         143.0775  142.4929  162.8434 C.ar    1  UNL1        0.0588
     15 N         143.4431  143.4820  161.7766 N.ar    1  UNL1       -0.2421
     16 C         142.3895  144.3706  161.1848 C.ar    1  UNL1        0.1736
     17 C         140.9702  144.2701  161.6599 C.ar    1  UNL1        0.3087
     18 C         140.6047  143.2810  162.7267 C.ar    1  UNL1        0.0755
     19 C         141.6583  142.3924  163.3184 C.ar    1  UNL1        0.0174
     20 C         141.2928  141.4034  164.3852 C.3     1  UNL1        0.1215
     21 N         139.9165  145.1587  161.0682 N.pl3   1  UNL1        0.0825
     22 O         139.9157  145.4431  159.5954 O.2     1  UNL1        0.0415
     23 O         138.8636  145.7631  161.9493 O.co2   1  UNL1       -0.5760
     24 N         138.9203  137.4986  163.5759 N.3     1  UNL1       -0.2975
     25 H         139.5734  136.7197  163.4916 H       1  UNL1        0.1232
     26 C         140.1319  138.1425  161.3697 C.3     1  UNL1        0.1591
     27 C         140.1354  138.8554  160.0500 C.3     1  UNL1        0.1729
     28 O         138.9311  139.6376  159.6168 O.3     1  UNL1       -0.3511
     29 C         137.7230  139.7068  160.5034 C.3     1  UNL1        0.1437
     30 C         137.7195  138.9938  161.8231 C.3     1  UNL1        0.0503
     31 C         138.9239  138.2116  162.2562 C.3     1  UNL1        0.0865
     32 C         142.6505  138.0555  162.0012 C.3     1  UNL1        0.1742
     33 O         141.3362  137.3603  161.8028 O.3     1  UNL1       -0.3496
@<TRIPOS>UNITY_ATOM_ATTR
21 1
charge 1
23 1
charge -1
@<TRIPOS>BOND
     1    32    33    1
     2    33    26    1
     3    26    27    1
     4    27    28    1
     5    28    29    1
     6    29    30    1
     7    30    31    1
     8    31    24    1
     9     1    24    1
    10     1     2    1
    11     3     2    1
    12     3     4    1
    13     4     5    1
    14     5     6    1
    15     6     7    1
    16     7     9    1
    17     9    10    2
    18     9    11   am
    19    11    12    1
    20    12    13    1
    21    13    14    1
    22    14    15   ar
    23    15    16   ar
    24    16    17   ar
    25    17    21    1
    26    21    22    2
    27    21    23    1
    28    17    18   ar
    29    18    19   ar
    30    19    20    1
    31     7     8    1
    32    31    26    1
    33     8     1    1
    34     7     3    1
    35    20    11    1
    36    19    14   ar
    37    24    25    1
@<TRIPOS>MOLECULE
*****
 33 37 0 0 0
SMALL
GASTEIGER

@<TRIPOS>ATOM
      1 C         140.5635  142.5153  166.4583 C.3     1  UNL1        0.0545
      2 C         139.8791  143.7224  165.8886 C.3     1  UNL1        0.0162
      3 C         138.8695  143.2518  164.8841 C.3     1  UNL1        0.0095
      4 C         137.8225  143.7070  163.9111 C.3     1  UNL1        0.0005
      5 C         137.2358  142.4904  163.2586 C.3     1  UNL1        0.0005
      6 C         137.9202  141.2833  163.8283 C.3     1  UNL1        0.0087
      7 C         138.9298  141.7539  164.8329 C.3     1  UNL1        0.0704
      8 C         139.9768  141.2987  165.8059 C.3     1  UNL1        0.0243
      9 C         138.9902  140.2560  164.7818 C.2     1  UNL1        0.2250
     10 O         138.1687  139.4393  165.7347 O.2     1  UNL1       -0.2749
     11 N         139.8722  139.5748  163.7777 N.am    1  UNL1       -0.2750
     12 C         139.9326  138.0769  163.7265 C.3     1  UNL1        0.1000
     13 C         140.8145  137.3957  162.7225 C.3     1  UNL1        0.0670
     14 C         141.6360  138.2124  161.7695 C.ar    1  UNL1        0.0588
     15 N         142.5180  137.5312  160.7654 N.ar    1  UNL1       -0.2421
     16 C         143.3395  138.3479  159.8125 C.ar    1  UNL1        0.1736
     17 C         143.2791  139.8459  159.8637 C.ar    1  UNL1        0.3087
     18 C         142.3971  140.5270  160.8677 C.ar    1  UNL1        0.0755
     19 C         141.5756  139.7103  161.8207 C.ar    1  UNL1        0.0174
     20 C         140.6937  140.3915  162.8247 C.3     1  UNL1        0.1215
     21 N         144.1006  140.6626  158.9108 N.pl3   1  UNL1        0.0825
     22 O         144.5961  140.0515  157.6336 O.2     1  UNL1        0.0415
     23 O         144.4266  142.0904  159.2350 O.co2   1  UNL1       -0.5760
     24 N         141.6448  142.5234  167.4980 N.3     1  UNL1       -0.2975
     25 H         142.2885  141.7691  167.2592 H       1  UNL1        0.1232
     26 C         142.0087  141.3243  169.7739 C.3     1  UNL1        0.1591
     27 C         141.6579  141.1519  171.2221 C.3     1  UNL1        0.1729
     28 O         140.5924  142.0062  171.8426 O.3     1  UNL1       -0.3511
     29 C         139.8777  143.0329  171.0149 C.3     1  UNL1        0.1437
     30 C         140.2285  143.2053  169.5667 C.3     1  UNL1        0.0503
     31 C         141.2940  142.3510  168.9462 C.3     1  UNL1        0.0865
     32 C         142.6943  139.2493  168.3689 C.3     1  UNL1        0.1742
     33 O         143.0741  140.4701  169.1535 O.3     1  UNL1       -0.3496
@<TRIPOS>UNITY_ATOM_ATTR
21 1
charge 1
23 1
charge -1
@<TRIPOS>BOND
     1    32    33    1
     2    33    26    1
     3    26    27    1
     4    27    28    1
     5    28    29    1
     6    29    30    1
     7    30    31    1
     8    31    24    1
     9     1    24    1
    10     1     2    1
    11     3     2    1
    12     3     4    1
    13     4     5    1
    14     5     6    1
    15     6     7    1
    16     7     9    1
    17     9    10    2
    18     9    11   am
    19    11    12    1
    20    12    13    1
    21    13    14    1
    22    14    15   ar
    23    15    16   ar
    24    16    17   ar
    25    17    21    1
    26    21    22    2
    27    21    23    1
    28    17    18   ar
    29    18    19   ar
    30    19    20    1
    31     7     8    1
    32    31    26    1
    33     8     1    1
    34     7     3    1
    35    20    11    1
    36    19    14   ar
    37    24    25    1
@<TRIPOS>MOLECULE
*****
 33 37 0 0 0
SMALL
GASTEIGER

@<TRIPOS>ATOM
      1 C         139.6134  142.5765  163.7504 C.3     1  UNL1        0.0545
      2 C         139.6863  144.0747  163.7642 C.3     1  UNL1        0.0162
      3 C         141.1322  144.4690  163.7010 C.3     1  UNL1        0.0095
      4 C         142.0709  145.6385  163.6704 C.3     1  UNL1        0.0005
      5 C         143.4717  145.1069  163.5987 C.3     1  UNL1        0.0005
      6 C         143.3987  143.6088  163.5849 C.3     1  UNL1        0.0087
      7 C         141.9529  143.2145  163.6481 C.3     1  UNL1        0.0704
      8 C         141.0142  142.0449  163.6787 C.3     1  UNL1        0.0243
      9 C         142.7735  141.9600  163.5952 C.2     1  UNL1        0.2250
     10 O         143.4984  141.5905  162.3351 O.2     1  UNL1       -0.2749
     11 N         142.8692  141.0749  164.8026 N.am    1  UNL1       -0.2750
     12 C         143.6899  139.8205  164.7497 C.3     1  UNL1        0.1000
     13 C         143.7856  138.9355  165.9570 C.3     1  UNL1        0.0670
     14 C         143.0607  139.3050  167.2172 C.ar    1  UNL1        0.0588
     15 N         143.1564  138.4200  168.4245 N.ar    1  UNL1       -0.2421
     16 C         142.4315  138.7894  169.6847 C.ar    1  UNL1        0.1736
     17 C         141.6109  140.0440  169.7375 C.ar    1  UNL1        0.3087
     18 C         141.5151  140.9290  168.5302 C.ar    1  UNL1        0.0755
     19 C         142.2401  140.5595  167.2700 C.ar    1  UNL1        0.0174
     20 C         142.1443  141.4444  166.0627 C.3     1  UNL1        0.1215
     21 N         140.8860  140.4135  170.9976 N.pl3   1  UNL1        0.0825
     22 O         141.4293  141.4926  171.8865 O.2     1  UNL1        0.0415
     23 O         139.6176  139.7038  171.3689 O.co2   1  UNL1       -0.5760
     24 N         138.3597  141.7543  163.7997 N.3     1  UNL1       -0.2975
     25 H         138.1909  141.5333  164.7811 H       1  UNL1        0.1232
     26 C         138.6992  139.1803  163.7050 C.3     1  UNL1        0.1591
     27 C         138.6207  137.8865  162.9501 C.3     1  UNL1        0.1729
     28 O         138.1241  137.8730  161.5347 O.3     1  UNL1       -0.3511
     29 C         137.7060  139.1534  160.8743 C.3     1  UNL1        0.1437
     30 C         137.7846  140.4471  161.6293 C.3     1  UNL1        0.0503
     31 C         138.2812  140.4606  163.0447 C.3     1  UNL1        0.0865
     32 C         138.2211  139.1154  166.2580 C.3     1  UNL1        0.1742
     33 O         139.1958  139.1938  165.1204 O.3     1  UNL1       -0.3496
@<TRIPOS>UNITY_ATOM_ATTR
21 1
charge 1
23 1
charge -1
@<TRIPOS>BOND
     1    32    33    1
     2    33    26    1
     3    26    27    1
     4    27    28    1
     5    28    29    1
     6    29    30    1
     7    30    31    1
     8    31    24    1
     9     1    24    1
    10     1     2    1
    11     3     2    1
    12     3     4    1
    13     4     5    1
    14     5     6    1
    15     6     7    1
    16     7     9    1
    17     9    10    2
    18     9    11   am
    19    11    12    1
    20    12    13    1
    21    13    14    1
    22    14    15   ar
    23    15    16   ar
    24    16    17   ar
    25    17    21    1
    26    21    22    2
    27    21    23    1
    28    17    18   ar
    29    18    19   ar
    30    19    20    1
    31     7     8    1
    32    31    26    1
    33     8     1    1
    34     7     3    1
    35    20    11    1
    36    19    14   ar
    37    24    25    1
