@<TRIPOS>MOLECULE
*****
 22 23 0 0 0
SMALL
GASTEIGER

@<TRIPOS>ATOM
      1 C         139.8343  139.6667  167.6625 C.3     1  UNL1        0.1420
      2 C         140.5838  144.3100  170.0621 C.3     1  UNL1        0.0534
      3 C         140.1256  142.9114  169.7726 C.ar    1  UNL1        0.0738
      4 N         139.2729  142.0602  170.6661 N.ar    1  UNL1       -0.2187
      5 C         139.0600  140.7410  169.9843 C.ar    1  UNL1        0.1942
      6 N         138.2654  139.5883  170.5229 N.pl3   1  UNL1       -0.3288
      7 N         139.7811  140.7771  168.6696 N.ar    1  UNL1       -0.3010
      8 C         140.4397  142.1184  168.5387 C.ar    1  UNL1        0.0535
      9 C         141.2671  142.5848  167.3777 C.3     1  UNL1        0.0514
     10 H         137.8262  139.6608  171.4010 H       1  UNL1        0.1451
     11 H         138.1832  138.7593  169.9983 H       1  UNL1        0.1451
     12 C         138.5888  139.2521  166.9367 C.3     1  UNL1        0.1561
     13 O         137.5049  138.5162  167.6671 O.3     1  UNL1       -0.3780
     14 H         136.7759  138.3248  167.0565 H       1  UNL1        0.2109
     15 C         138.4272  139.5735  165.4804 C.ar    1  UNL1        0.0168
     16 C         138.0293  140.9564  165.0572 C.ar    1  UNL1       -0.0002
     17 C         137.8677  141.2777  163.6010 C.ar    1  UNL1        0.0112
     18 C         138.1040  140.2160  162.5680 C.ar    1  UNL1        0.0585
     19 CL        137.9424  140.5374  161.1117 Cl      1  UNL1       -0.0822
     20 C         138.5018  138.8331  162.9912 C.ar    1  UNL1        0.0225
     21 C         138.6635  138.5118  164.4474 C.ar    1  UNL1        0.0568
     22 CL        139.0613  137.1288  164.8707 Cl      1  UNL1       -0.0825
@<TRIPOS>BOND
     1     2     3    1
     2     3     4   ar
     3     4     5   ar
     4     5     6    1
     5     5     7   ar
     6     7     1    1
     7     1    12    1
     8    12    13    1
     9    12    15    1
    10    15    16   ar
    11    16    17   ar
    12    17    18   ar
    13    18    19    1
    14    18    20   ar
    15    20    21   ar
    16    21    22    1
    17     7     8   ar
    18     8     9    1
    19     8     3   ar
    20    21    15   ar
    21     6    10    1
    22     6    11    1
    23    13    14    1
@<TRIPOS>MOLECULE
*****
 22 23 0 0 0
SMALL
GASTEIGER

@<TRIPOS>ATOM
      1 C         138.9009  140.7929  162.2179 C.3     1  UNL1        0.1420
      2 C         143.4907  138.1824  162.2330 C.3     1  UNL1        0.0534
      3 C         142.0221  138.4856  162.1978 C.ar    1  UNL1        0.0738
      4 N         140.9158  137.4774  162.1007 N.ar    1  UNL1       -0.2187
      5 C         139.6118  138.2190  162.0964 C.ar    1  UNL1        0.1942
      6 N         138.2471  137.6023  162.0124 N.pl3   1  UNL1       -0.3288
      7 N         139.9125  139.6855  162.1909 N.ar    1  UNL1       -0.3010
      8 C         141.4021  139.8503  162.2535 C.ar    1  UNL1        0.0535
      9 C         142.1416  141.1514  162.3543 C.3     1  UNL1        0.0514
     10 H         138.1517  136.6242  161.9531 H       1  UNL1        0.1451
     11 H         137.4467  138.1756  162.0165 H       1  UNL1        0.1451
     12 C         138.0044  140.9608  163.4086 C.3     1  UNL1        0.1561
     13 O         136.5750  141.3742  163.2189 O.3     1  UNL1       -0.3780
     14 H         136.1389  141.4360  164.0831 H       1  UNL1        0.2109
     15 C         138.5372  140.7153  164.7892 C.ar    1  UNL1        0.0168
     16 C         138.1405  139.4771  165.5371 C.ar    1  UNL1       -0.0002
     17 C         138.6732  139.2316  166.9176 C.ar    1  UNL1        0.0112
     18 C         139.6028  140.2245  167.5502 C.ar    1  UNL1        0.0585
     19 CL        140.1356  139.9790  168.9308 Cl      1  UNL1       -0.0822
     20 C         139.9995  141.4627  166.8024 C.ar    1  UNL1        0.0225
     21 C         139.4667  141.7081  165.4219 C.ar    1  UNL1        0.0568
     22 CL        139.8634  142.9465  164.6740 Cl      1  UNL1       -0.0825
@<TRIPOS>BOND
     1     2     3    1
     2     3     4   ar
     3     4     5   ar
     4     5     6    1
     5     5     7   ar
     6     7     1    1
     7     1    12    1
     8    12    13    1
     9    12    15    1
    10    15    16   ar
    11    16    17   ar
    12    17    18   ar
    13    18    19    1
    14    18    20   ar
    15    20    21   ar
    16    21    22    1
    17     7     8   ar
    18     8     9    1
    19     8     3   ar
    20    21    15   ar
    21     6    10    1
    22     6    11    1
    23    13    14    1
@<TRIPOS>MOLECULE
*****
 22 23 0 0 0
SMALL
GASTEIGER

@<TRIPOS>ATOM
      1 C         138.9705  137.4842  165.1997 C.3     1  UNL1        0.1420
      2 C         143.2313  138.6131  162.2926 C.3     1  UNL1        0.0534
      3 C         141.8208  138.2983  162.6940 C.ar    1  UNL1        0.0738
      4 N         140.6483  138.1690  161.7673 N.ar    1  UNL1       -0.2187
      5 C         139.4379  137.8482  162.5932 C.ar    1  UNL1        0.1942
      6 N         138.0473  137.6340  162.0732 N.pl3   1  UNL1       -0.3288
      7 N         139.8623  137.7794  164.0302 N.ar    1  UNL1       -0.3010
      8 C         141.3350  138.0575  164.0925 C.ar    1  UNL1        0.0535
      9 C         142.1744  138.0893  165.3352 C.3     1  UNL1        0.0514
     10 H         137.8671  137.7005  161.1077 H       1  UNL1        0.1451
     11 H         137.3148  137.4268  162.6976 H       1  UNL1        0.1451
     12 C         138.2950  138.6068  165.9300 C.3     1  UNL1        0.1561
     13 O         137.2319  138.3087  166.9453 O.3     1  UNL1       -0.3780
     14 H         136.9014  139.1398  167.3209 H       1  UNL1        0.2109
     15 C         138.6826  140.0276  165.6449 C.ar    1  UNL1        0.0168
     16 C         138.0792  140.7497  164.4768 C.ar    1  UNL1       -0.0002
     17 C         138.4668  142.1704  164.1918 C.ar    1  UNL1        0.0112
     18 C         139.4578  142.8690  165.0749 C.ar    1  UNL1        0.0585
     19 CL        139.8454  144.2898  164.7898 Cl      1  UNL1       -0.0822
     20 C         140.0613  142.1469  166.2429 C.ar    1  UNL1        0.0225
     21 C         139.6736  140.7262  166.5279 C.ar    1  UNL1        0.0568
     22 CL        140.2771  140.0040  167.6961 Cl      1  UNL1       -0.0825
@<TRIPOS>BOND
     1     2     3    1
     2     3     4   ar
     3     4     5   ar
     4     5     6    1
     5     5     7   ar
     6     7     1    1
     7     1    12    1
     8    12    13    1
     9    12    15    1
    10    15    16   ar
    11    16    17   ar
    12    17    18   ar
    13    18    19    1
    14    18    20   ar
    15    20    21   ar
    16    21    22    1
    17     7     8   ar
    18     8     9    1
    19     8     3   ar
    20    21    15   ar
    21     6    10    1
    22     6    11    1
    23    13    14    1
@<TRIPOS>MOLECULE
*****
 22 23 0 0 0
SMALL
GASTEIGER

@<TRIPOS>ATOM
      1 C         141.1219  142.4408  168.0846 C.3     1  UNL1        0.1420
      2 C         137.7572  138.5488  166.8965 C.3     1  UNL1        0.0534
      3 C         138.6004  139.5193  167.6691 C.ar    1  UNL1        0.0738
      4 N         138.6930  139.6119  169.1634 N.ar    1  UNL1       -0.2187
      5 C         139.6489  140.7176  169.5009 C.ar    1  UNL1        0.1942
      6 N         140.0384  141.1555  170.8817 N.pl3   1  UNL1       -0.3288
      7 N         140.1469  141.3083  168.2152 N.ar    1  UNL1       -0.3010
      8 C         139.4989  140.5678  167.0831 C.ar    1  UNL1        0.0535
      9 C         139.7120  140.8297  165.6217 C.3     1  UNL1        0.0514
     10 H         139.6554  140.7033  171.6679 H       1  UNL1        0.1451
     11 H         140.6769  141.8952  171.0018 H       1  UNL1        0.1451
     12 C         142.5770  142.1554  167.8588 C.3     1  UNL1        0.1561
     13 O         143.5985  142.6427  168.8433 O.3     1  UNL1       -0.3780
     14 H         144.4836  142.3753  168.5500 H       1  UNL1        0.2109
     15 C         143.0108  141.3827  166.6485 C.ar    1  UNL1        0.0168
     16 C         143.3389  142.1050  165.3754 C.ar    1  UNL1       -0.0002
     17 C         143.7726  141.3323  164.1652 C.ar    1  UNL1        0.0112
     18 C         143.8783  139.8373  164.2280 C.ar    1  UNL1        0.0585
     19 CL        144.3121  139.0647  163.0176 Cl      1  UNL1       -0.0822
     20 C         143.5503  139.1151  165.5010 C.ar    1  UNL1        0.0225
     21 C         143.1165  139.8878  166.7112 C.ar    1  UNL1        0.0568
     22 CL        142.7885  139.1655  167.9844 Cl      1  UNL1       -0.0825
@<TRIPOS>BOND
     1     2     3    1
     2     3     4   ar
     3     4     5   ar
     4     5     6    1
     5     5     7   ar
     6     7     1    1
     7     1    12    1
     8    12    13    1
     9    12    15    1
    10    15    16   ar
    11    16    17   ar
    12    17    18   ar
    13    18    19    1
    14    18    20   ar
    15    20    21   ar
    16    21    22    1
    17     7     8   ar
    18     8     9    1
    19     8     3   ar
    20    21    15   ar
    21     6    10    1
    22     6    11    1
    23    13    14    1
@<TRIPOS>MOLECULE
*****
 22 23 0 0 0
SMALL
GASTEIGER

@<TRIPOS>ATOM
      1 C         138.2350  142.9258  164.5969 C.3     1  UNL1        0.1420
      2 C         143.1916  144.6819  164.1185 C.3     1  UNL1        0.0534
      3 C         141.7174  144.4973  163.9122 C.ar    1  UNL1        0.0738
      4 N         140.8665  145.2353  162.9215 N.ar    1  UNL1       -0.2187
      5 C         139.4584  144.7364  163.0574 C.ar    1  UNL1        0.1942
      6 N         138.2771  145.2021  162.2589 N.pl3   1  UNL1       -0.3288
      7 N         139.4391  143.6901  164.1321 N.ar    1  UNL1       -0.3010
      8 C         140.8352  143.5424  164.6604 C.ar    1  UNL1        0.0535
      9 C         141.2723  142.6043  165.7461 C.3     1  UNL1        0.0514
     10 H         138.3909  145.8977  161.5715 H       1  UNL1        0.1451
     11 H         137.3880  144.8121  162.4221 H       1  UNL1        0.1451
     12 C         137.8511  141.6452  163.9168 C.3     1  UNL1        0.1561
     13 O         136.6116  141.5858  163.0741 O.3     1  UNL1       -0.3780
     14 H         136.5104  140.6924  162.7103 H       1  UNL1        0.2109
     15 C         138.7066  140.4238  164.0794 C.ar    1  UNL1        0.0168
     16 C         138.4418  139.4669  165.2038 C.ar    1  UNL1       -0.0002
     17 C         139.2974  138.2456  165.3663 C.ar    1  UNL1        0.0112
     18 C         140.4176  137.9812  164.4046 C.ar    1  UNL1        0.0585
     19 CL        141.2732  136.7598  164.5672 Cl      1  UNL1       -0.0822
     20 C         140.6824  138.9381  163.2802 C.ar    1  UNL1        0.0225
     21 C         139.8269  140.1594  163.1176 C.ar    1  UNL1        0.0568
     22 CL        140.0917  141.1163  161.9932 Cl      1  UNL1       -0.0825
@<TRIPOS>BOND
     1     2     3    1
     2     3     4   ar
     3     4     5   ar
     4     5     6    1
     5     5     7   ar
     6     7     1    1
     7     1    12    1
     8    12    13    1
     9    12    15    1
    10    15    16   ar
    11    16    17   ar
    12    17    18   ar
    13    18    19    1
    14    18    20   ar
    15    20    21   ar
    16    21    22    1
    17     7     8   ar
    18     8     9    1
    19     8     3   ar
    20    21    15   ar
    21     6    10    1
    22     6    11    1
    23    13    14    1
@<TRIPOS>MOLECULE
*****
 22 23 0 0 0
SMALL
GASTEIGER

@<TRIPOS>ATOM
      1 C         139.8337  144.6612  164.5144 C.3     1  UNL1        0.1420
      2 C         138.2104  139.7170  165.4086 C.3     1  UNL1        0.0534
      3 C         138.3598  141.0823  164.8060 C.ar    1  UNL1        0.0738
      4 N         137.6123  141.6076  163.6162 N.ar    1  UNL1       -0.2187
      5 C         138.0735  143.0122  163.3622 C.ar    1  UNL1        0.1942
      6 N         137.5876  143.9154  162.2676 N.pl3   1  UNL1       -0.3288
      7 N         139.1060  143.3550  164.3950 N.ar    1  UNL1       -0.3010
      8 C         139.2829  142.1623  165.2872 C.ar    1  UNL1        0.0535
      9 C         140.2186  142.0664  166.4556 C.3     1  UNL1        0.0514
     10 H         136.9034  143.5980  161.6349 H       1  UNL1        0.1451
     11 H         137.9528  144.8257  162.1820 H       1  UNL1        0.1451
     12 C         140.9933  144.9591  163.6107 C.3     1  UNL1        0.1561
     13 O         140.9369  146.1348  162.6810 O.3     1  UNL1       -0.3780
     14 H         141.7609  146.1841  162.1717 H       1  UNL1        0.2109
     15 C         142.2093  144.0812  163.6368 C.ar    1  UNL1        0.0168
     16 C         143.2888  144.3250  164.6493 C.ar    1  UNL1       -0.0002
     17 C         144.5048  143.4471  164.6752 C.ar    1  UNL1        0.0112
     18 C         144.6412  142.3254  163.6887 C.ar    1  UNL1        0.0585
     19 CL        145.8573  141.4475  163.7147 Cl      1  UNL1       -0.0822
     20 C         143.5617  142.0816  162.6762 C.ar    1  UNL1        0.0225
     21 C         142.3458  142.9595  162.6502 C.ar    1  UNL1        0.0568
     22 CL        141.2662  142.7157  161.6377 Cl      1  UNL1       -0.0825
@<TRIPOS>BOND
     1     2     3    1
     2     3     4   ar
     3     4     5   ar
     4     5     6    1
     5     5     7   ar
     6     7     1    1
     7     1    12    1
     8    12    13    1
     9    12    15    1
    10    15    16   ar
    11    16    17   ar
    12    17    18   ar
    13    18    19    1
    14    18    20   ar
    15    20    21   ar
    16    21    22    1
    17     7     8   ar
    18     8     9    1
    19     8     3   ar
    20    21    15   ar
    21     6    10    1
    22     6    11    1
    23    13    14    1
@<TRIPOS>MOLECULE
*****
 22 23 0 0 0
SMALL
GASTEIGER

@<TRIPOS>ATOM
      1 C         140.3316  139.1129  162.1754 C.3     1  UNL1        0.1420
      2 C         138.1859  143.8827  162.9002 C.3     1  UNL1        0.0534
      3 C         138.3536  142.4291  162.5706 C.ar    1  UNL1        0.0738
      4 N         137.2740  141.5026  162.0952 N.ar    1  UNL1       -0.2187
      5 C         137.8836  140.1475  161.8893 C.ar    1  UNL1        0.1942
      6 N         137.1633  138.9191  161.4180 N.pl3   1  UNL1       -0.3288
      7 N         139.3399  140.2367  162.2375 N.ar    1  UNL1       -0.3010
      8 C         139.6304  141.6467  162.6585 C.ar    1  UNL1        0.0535
      9 C         140.9636  142.1806  163.0914 C.3     1  UNL1        0.0514
     10 H         136.2012  138.9607  161.2134 H       1  UNL1        0.1451
     11 H         137.6526  138.0712  161.3133 H       1  UNL1        0.1451
     12 C         140.5117  138.2056  163.3561 C.3     1  UNL1        0.1561
     13 O         141.0564  136.8215  163.1622 O.3     1  UNL1       -0.3780
     14 H         141.1089  136.3715  164.0199 H       1  UNL1        0.2109
     15 C         140.1472  138.6822  164.7309 C.ar    1  UNL1        0.0168
     16 C         138.7508  138.4926  165.2447 C.ar    1  UNL1       -0.0002
     17 C         138.3863  138.9693  166.6194 C.ar    1  UNL1        0.0112
     18 C         139.4182  139.6356  167.4803 C.ar    1  UNL1        0.0585
     19 CL        139.0537  140.1123  168.8551 Cl      1  UNL1       -0.0822
     20 C         140.8146  139.8253  166.9665 C.ar    1  UNL1        0.0225
     21 C         141.1791  139.3486  165.5918 C.ar    1  UNL1        0.0568
     22 CL        142.5755  139.5382  165.0779 Cl      1  UNL1       -0.0825
@<TRIPOS>BOND
     1     2     3    1
     2     3     4   ar
     3     4     5   ar
     4     5     6    1
     5     5     7   ar
     6     7     1    1
     7     1    12    1
     8    12    13    1
     9    12    15    1
    10    15    16   ar
    11    16    17   ar
    12    17    18   ar
    13    18    19    1
    14    18    20   ar
    15    20    21   ar
    16    21    22    1
    17     7     8   ar
    18     8     9    1
    19     8     3   ar
    20    21    15   ar
    21     6    10    1
    22     6    11    1
    23    13    14    1
@<TRIPOS>MOLECULE
*****
 22 23 0 0 0
SMALL
GASTEIGER

@<TRIPOS>ATOM
      1 C         139.4666  138.2900  165.2547 C.3     1  UNL1        0.1420
      2 C         143.6010  138.0578  161.9785 C.3     1  UNL1        0.0534
      3 C         142.2001  138.0152  162.5127 C.ar    1  UNL1        0.0738
      4 N         140.9631  137.7113  161.7204 N.ar    1  UNL1       -0.2187
      5 C         139.7886  137.7773  162.6511 C.ar    1  UNL1        0.1942
      6 N         138.3548  137.5403  162.2796 N.pl3   1  UNL1       -0.3288
      7 N         140.2997  138.1219  164.0186 N.ar    1  UNL1       -0.3010
      8 C         141.7900  138.2689  163.9331 C.ar    1  UNL1        0.0535
      9 C         142.7089  138.6098  165.0686 C.3     1  UNL1        0.0514
     10 H         138.1174  137.3182  161.3503 H       1  UNL1        0.1451
     11 H         137.6512  137.6067  162.9650 H       1  UNL1        0.1451
     12 C         138.8833  139.6307  165.5894 C.3     1  UNL1        0.1561
     13 O         137.6659  140.1214  164.8633 O.3     1  UNL1       -0.3780
     14 H         137.4213  140.9983  165.1981 H       1  UNL1        0.2109
     15 C         139.5174  140.4809  166.6502 C.ar    1  UNL1        0.0168
     16 C         139.3901  140.0969  168.0946 C.ar    1  UNL1       -0.0002
     17 C         140.0241  140.9470  169.1553 C.ar    1  UNL1        0.0112
     18 C         140.7855  142.1812  168.7716 C.ar    1  UNL1        0.0585
     19 CL        141.4196  143.0314  169.8324 Cl      1  UNL1       -0.0822
     20 C         140.9128  142.5652  167.3272 C.ar    1  UNL1        0.0225
     21 C         140.2787  141.7150  166.2665 C.ar    1  UNL1        0.0568
     22 CL        140.4060  142.0990  164.8220 Cl      1  UNL1       -0.0825
@<TRIPOS>BOND
     1     2     3    1
     2     3     4   ar
     3     4     5   ar
     4     5     6    1
     5     5     7   ar
     6     7     1    1
     7     1    12    1
     8    12    13    1
     9    12    15    1
    10    15    16   ar
    11    16    17   ar
    12    17    18   ar
    13    18    19    1
    14    18    20   ar
    15    20    21   ar
    16    21    22    1
    17     7     8   ar
    18     8     9    1
    19     8     3   ar
    20    21    15   ar
    21     6    10    1
    22     6    11    1
    23    13    14    1
@<TRIPOS>MOLECULE
*****
 22 23 0 0 0
SMALL
GASTEIGER

@<TRIPOS>ATOM
      1 C         138.1129  139.9528  164.8146 C.3     1  UNL1        0.1420
      2 C         143.0267  138.2627  165.7523 C.3     1  UNL1        0.0534
      3 C         141.6495  138.3938  165.1727 C.ar    1  UNL1        0.0738
      4 N         141.0651  137.5403  164.0863 N.ar    1  UNL1       -0.2187
      5 C         139.6692  138.0205  163.8200 C.ar    1  UNL1        0.1942
      6 N         138.7186  137.4505  162.8093 N.pl3   1  UNL1       -0.3288
      7 N         139.3909  139.1706  164.7417 N.ar    1  UNL1       -0.3010
      8 C         140.6147  139.4014  165.5778 C.ar    1  UNL1        0.0535
      9 C         140.7755  140.4547  166.6335 C.3     1  UNL1        0.0514
     10 H         138.9948  136.6907  162.2474 H       1  UNL1        0.1451
     11 H         137.8184  137.8361  162.7078 H       1  UNL1        0.1451
     12 C         137.9053  141.1356  163.9159 C.3     1  UNL1        0.1561
     13 O         136.6769  141.2201  163.0592 O.3     1  UNL1       -0.3780
     14 H         136.6983  142.0413  162.5434 H       1  UNL1        0.2109
     15 C         138.9260  142.2340  163.8739 C.ar    1  UNL1        0.0168
     16 C         138.8442  143.3715  164.8482 C.ar    1  UNL1       -0.0002
     17 C         139.8648  144.4699  164.8062 C.ar    1  UNL1        0.0112
     18 C         140.9673  144.4307  163.7898 C.ar    1  UNL1        0.0585
     19 CL        141.9881  145.5291  163.7478 Cl      1  UNL1       -0.0822
     20 C         141.0491  143.2932  162.8155 C.ar    1  UNL1        0.0225
     21 C         140.0285  142.1949  162.8576 C.ar    1  UNL1        0.0568
     22 CL        140.1102  141.0573  161.8832 Cl      1  UNL1       -0.0825
@<TRIPOS>BOND
     1     2     3    1
     2     3     4   ar
     3     4     5   ar
     4     5     6    1
     5     5     7   ar
     6     7     1    1
     7     1    12    1
     8    12    13    1
     9    12    15    1
    10    15    16   ar
    11    16    17   ar
    12    17    18   ar
    13    18    19    1
    14    18    20   ar
    15    20    21   ar
    16    21    22    1
    17     7     8   ar
    18     8     9    1
    19     8     3   ar
    20    21    15   ar
    21     6    10    1
    22     6    11    1
    23    13    14    1
