@<TRIPOS>MOLECULE
*****
 34 39 0 0 0
SMALL
GASTEIGER

@<TRIPOS>ATOM
      1 F         143.7319  142.6053  168.3713 F       1  UNL1       -0.1816
      2 C         142.4120  142.0390  168.8040 C.ar    1  UNL1        0.2382
      3 N         141.8912  142.3195  170.1824 N.ar    1  UNL1       -0.2152
      4 C         140.5714  141.7532  170.6152 C.ar    1  UNL1        0.1014
      5 C         139.7723  140.9064  169.6695 C.ar    1  UNL1        0.0224
      6 C         140.2931  140.6258  168.2911 C.ar    1  UNL1        0.0256
      7 C         139.7324  139.8318  167.1486 C.ar    1  UNL1        0.0550
      8 C         138.4613  139.0497  166.9982 C.ar    1  UNL1        0.1048
      9 N         138.1636  138.3432  165.7089 N.ar    1  UNL1       -0.2119
     10 C         139.1369  138.4187  164.5701 C.ar    1  UNL1        0.2231
     11 N         140.4080  139.2008  164.7206 N.ar    1  UNL1       -0.1961
     12 C         140.7057  139.9074  166.0098 C.ar    1  UNL1        0.1482
     13 N         141.8680  140.7481  166.4485 N.ar    1  UNL1       -0.3114
     14 C         141.6129  141.1921  167.8584 C.ar    1  UNL1        0.1076
     15 C         143.0736  141.0856  165.6223 C.3     1  UNL1        0.0870
     16 C         143.5269  142.4652  165.2466 C.3     1  UNL1        0.0226
     17 C         144.7710  142.3350  164.4188 C.3     1  UNL1        0.0020
     18 C         145.0867  140.8749  164.2829 C.3     1  UNL1        0.0020
     19 C         144.0375  140.1028  165.0267 C.3     1  UNL1        0.0226
     20 N         138.8391  137.7122  163.2809 N.pl3   1  UNL1       -0.2679
     21 H         138.0656  137.1063  163.2188 H       1  UNL1        0.1565
     22 C         139.7198  137.9289  162.0862 C.ar    1  UNL1        0.1344
     23 C         139.1562  138.5467  160.8410 C.ar    1  UNL1        0.0358
     24 C         140.0370  138.7633  159.6463 C.ar    1  UNL1        0.0190
     25 C         141.4815  138.3621  159.6968 C.ar    1  UNL1        0.0675
     26 C         142.0452  137.7443  160.9420 C.ar    1  UNL1        0.1147
     27 N         141.1643  137.5277  162.1368 N.ar    1  UNL1       -0.2277
     28 N         142.3623  138.5788  158.5021 N.pl3   1  UNL1       -0.3035
     29 C         142.4821  137.5113  157.4552 C.3     1  UNL1        0.1079
     30 C         143.3629  137.7279  156.2606 C.3     1  UNL1        0.0903
     31 N         144.1239  139.0119  156.1129 N.3     1  UNL1       -0.2946
     32 C         144.0041  140.0795  157.1598 C.3     1  UNL1        0.0903
     33 C         143.1234  139.8629  158.3544 C.3     1  UNL1        0.1079
     34 H         143.8277  139.4300  155.2309 H       1  UNL1        0.1233
@<TRIPOS>BOND
     1     1     2    1
     2     2     3   ar
     3     3     4   ar
     4     4     5   ar
     5     5     6   ar
     6     6     7   ar
     7     7     8   ar
     8     8     9   ar
     9     9    10   ar
    10    10    20    1
    11    20    22    1
    12    22    23   ar
    13    23    24   ar
    14    24    25   ar
    15    25    28    1
    16    28    29    1
    17    29    30    1
    18    30    31    1
    19    31    32    1
    20    32    33    1
    21    25    26   ar
    22    26    27   ar
    23    10    11   ar
    24    11    12   ar
    25    12    13   ar
    26    13    15    1
    27    15    16    1
    28    16    17    1
    29    17    18    1
    30    18    19    1
    31    13    14   ar
    32    14     2   ar
    33    14     6   ar
    34    12     7   ar
    35    19    15    1
    36    27    22   ar
    37    33    28    1
    38    20    21    1
    39    31    34    1
@<TRIPOS>MOLECULE
*****
 34 39 0 0 0
SMALL
GASTEIGER

@<TRIPOS>ATOM
      1 F         143.8385  142.6908  168.1803 F       1  UNL1       -0.1816
      2 C         142.5014  142.2027  168.6533 C.ar    1  UNL1        0.2382
      3 N         141.9856  142.6158  169.9998 N.ar    1  UNL1       -0.2152
      4 C         140.6484  142.1277  170.4728 C.ar    1  UNL1        0.1014
      5 C         139.8271  141.2264  169.5993 C.ar    1  UNL1        0.0224
      6 C         140.3429  140.8133  168.2528 C.ar    1  UNL1        0.0256
      7 C         139.7620  139.9406  167.1799 C.ar    1  UNL1        0.0550
      8 C         138.4687  139.1860  167.0907 C.ar    1  UNL1        0.1048
      9 N         138.1535  138.3803  165.8654 N.ar    1  UNL1       -0.2119
     10 C         139.1316  138.3291  164.7293 C.ar    1  UNL1        0.2231
     11 N         140.4249  139.0836  164.8185 N.ar    1  UNL1       -0.1961
     12 C         140.7401  139.8894  166.0438 C.ar    1  UNL1        0.1482
     13 N         141.9255  140.7304  166.4146 N.ar    1  UNL1       -0.3114
     14 C         141.6801  141.3014  167.7798 C.ar    1  UNL1        0.1076
     15 C         143.1427  140.9602  165.5686 C.3     1  UNL1        0.0870
     16 C         144.0210  139.8961  164.9801 C.3     1  UNL1        0.0226
     17 C         145.1164  140.5725  164.2104 C.3     1  UNL1        0.0020
     18 C         144.9152  142.0547  164.3233 C.3     1  UNL1        0.0020
     19 C         143.6954  142.2942  165.1627 C.3     1  UNL1        0.0226
     20 N         138.8164  137.5233  163.5039 N.pl3   1  UNL1       -0.2679
     21 H         138.6406  136.5577  163.5815 H       1  UNL1        0.1565
     22 C         138.7690  138.1886  162.1605 C.ar    1  UNL1        0.1344
     23 C         137.6894  139.1839  161.8541 C.ar    1  UNL1        0.0358
     24 C         137.6420  139.8493  160.5105 C.ar    1  UNL1        0.0190
     25 C         138.6743  139.5195  159.4734 C.ar    1  UNL1        0.0675
     26 C         139.7540  138.5243  159.7799 C.ar    1  UNL1        0.1147
     27 N         139.8013  137.8588  161.1234 N.ar    1  UNL1       -0.2277
     28 N         138.6270  140.1848  158.1299 N.pl3   1  UNL1       -0.3035
     29 C         139.2895  139.5389  156.9494 C.3     1  UNL1        0.1079
     30 C         139.2422  140.2042  155.6059 C.3     1  UNL1        0.0903
     31 N         138.5324  141.5155  155.4429 N.3     1  UNL1       -0.2946
     32 C         137.8699  142.1615  156.6235 C.3     1  UNL1        0.0903
     33 C         137.9172  141.4962  157.9670 C.3     1  UNL1        0.1079
     34 H         137.8072  141.3724  154.7401 H       1  UNL1        0.1233
@<TRIPOS>BOND
     1     1     2    1
     2     2     3   ar
     3     3     4   ar
     4     4     5   ar
     5     5     6   ar
     6     6     7   ar
     7     7     8   ar
     8     8     9   ar
     9     9    10   ar
    10    10    20    1
    11    20    22    1
    12    22    23   ar
    13    23    24   ar
    14    24    25   ar
    15    25    28    1
    16    28    29    1
    17    29    30    1
    18    30    31    1
    19    31    32    1
    20    32    33    1
    21    25    26   ar
    22    26    27   ar
    23    10    11   ar
    24    11    12   ar
    25    12    13   ar
    26    13    15    1
    27    15    16    1
    28    16    17    1
    29    17    18    1
    30    18    19    1
    31    13    14   ar
    32    14     2   ar
    33    14     6   ar
    34    12     7   ar
    35    19    15    1
    36    27    22   ar
    37    33    28    1
    38    20    21    1
    39    31    34    1
@<TRIPOS>MOLECULE
*****
 34 39 0 0 0
SMALL
GASTEIGER

@<TRIPOS>ATOM
      1 F         141.3769  145.6456  159.7004 F       1  UNL1       -0.1816
      2 C         140.4767  144.6425  159.0418 C.ar    1  UNL1        0.2382
      3 N         140.0368  144.8476  157.6226 N.ar    1  UNL1       -0.2152
      4 C         139.1366  143.8446  156.9640 C.ar    1  UNL1        0.1014
      5 C         138.6764  142.6365  157.7248 C.ar    1  UNL1        0.0224
      6 C         139.1164  142.4315  159.1440 C.ar    1  UNL1        0.0256
      7 C         138.8271  141.3456  160.1376 C.ar    1  UNL1        0.0550
      8 C         138.0000  140.0974  160.0479 C.ar    1  UNL1        0.1048
      9 N         137.8943  139.1812  161.2308 N.ar    1  UNL1       -0.2119
     10 C         138.6157  139.5130  162.5034 C.ar    1  UNL1        0.2231
     11 N         139.4427  140.7611  162.5931 N.ar    1  UNL1       -0.1961
     12 C         139.5485  141.6774  161.4102 C.ar    1  UNL1        0.1482
     13 N         140.2836  142.9684  161.2031 N.ar    1  UNL1       -0.3114
     14 C         140.0165  143.4345  159.8026 C.ar    1  UNL1        0.1076
     15 C         141.1361  143.6703  162.2183 C.3     1  UNL1        0.0870
     16 C         140.7884  144.9421  162.9337 C.3     1  UNL1        0.0226
     17 C         141.9234  145.2813  163.8539 C.3     1  UNL1        0.0020
     18 C         142.9724  144.2192  163.7073 C.3     1  UNL1        0.0020
     19 C         142.4858  143.2236  162.6965 C.3     1  UNL1        0.0226
     20 N         138.5099  138.5967  163.6864 N.pl3   1  UNL1       -0.2679
     21 H         138.0385  137.7365  163.6022 H       1  UNL1        0.1565
     22 C         139.1225  138.9911  164.9975 C.ar    1  UNL1        0.1344
     23 C         138.2499  139.2059  166.1985 C.ar    1  UNL1        0.0358
     24 C         138.8625  139.6003  167.5098 C.ar    1  UNL1        0.0190
     25 C         140.3477  139.7798  167.6199 C.ar    1  UNL1        0.0675
     26 C         141.2202  139.5650  166.4189 C.ar    1  UNL1        0.1147
     27 N         140.6076  139.1707  165.1076 N.ar    1  UNL1       -0.2277
     28 N         140.9603  140.1742  168.9311 N.pl3   1  UNL1       -0.3035
     29 C         142.2576  139.5606  169.3675 C.3     1  UNL1        0.1079
     30 C         142.8702  139.9549  170.6786 C.3     1  UNL1        0.0903
     31 N         142.1856  140.9629  171.5533 N.3     1  UNL1       -0.2946
     32 C         140.8883  141.5765  171.1169 C.3     1  UNL1        0.0903
     33 C         140.2757  141.1822  169.8058 C.3     1  UNL1        0.1079
     34 H         142.8436  141.7304  171.6888 H       1  UNL1        0.1233
@<TRIPOS>BOND
     1     1     2    1
     2     2     3   ar
     3     3     4   ar
     4     4     5   ar
     5     5     6   ar
     6     6     7   ar
     7     7     8   ar
     8     8     9   ar
     9     9    10   ar
    10    10    20    1
    11    20    22    1
    12    22    23   ar
    13    23    24   ar
    14    24    25   ar
    15    25    28    1
    16    28    29    1
    17    29    30    1
    18    30    31    1
    19    31    32    1
    20    32    33    1
    21    25    26   ar
    22    26    27   ar
    23    10    11   ar
    24    11    12   ar
    25    12    13   ar
    26    13    15    1
    27    15    16    1
    28    16    17    1
    29    17    18    1
    30    18    19    1
    31    13    14   ar
    32    14     2   ar
    33    14     6   ar
    34    12     7   ar
    35    19    15    1
    36    27    22   ar
    37    33    28    1
    38    20    21    1
    39    31    34    1
@<TRIPOS>MOLECULE
*****
 34 39 0 0 0
SMALL
GASTEIGER

@<TRIPOS>ATOM
      1 F         139.3389  140.2684  170.0788 F       1  UNL1       -0.1816
      2 C         138.8871  139.8422  168.7134 C.ar    1  UNL1        0.2382
      3 N         137.8106  138.8078  168.5685 N.ar    1  UNL1       -0.2152
      4 C         137.3588  138.3816  167.2032 C.ar    1  UNL1        0.1014
      5 C         137.9835  138.9898  165.9826 C.ar    1  UNL1        0.0224
      6 C         139.0600  140.0243  166.1275 C.ar    1  UNL1        0.0256
      7 C         139.8546  140.7946  165.1149 C.ar    1  UNL1        0.0550
      8 C         139.8414  140.7910  163.6150 C.ar    1  UNL1        0.1048
      9 N         140.7710  141.6897  162.8546 N.ar    1  UNL1       -0.2119
     10 C         141.7138  142.5920  163.5942 C.ar    1  UNL1        0.2231
     11 N         141.7271  142.5956  165.0941 N.ar    1  UNL1       -0.1961
     12 C         140.7974  141.6969  165.8545 C.ar    1  UNL1        0.1482
     13 N         140.5856  141.4842  167.3241 N.ar    1  UNL1       -0.3114
     14 C         139.5118  140.4505  167.4929 C.ar    1  UNL1        0.1076
     15 C         141.3188  142.1826  168.4308 C.3     1  UNL1        0.0870
     16 C         140.7387  143.1999  169.3681 C.3     1  UNL1        0.0226
     17 C         141.8221  143.6323  170.3110 C.3     1  UNL1        0.0020
     18 C         143.0719  142.8824  169.9565 C.3     1  UNL1        0.0020
     19 C         142.7607  141.9864  168.7944 C.3     1  UNL1        0.0226
     20 N         142.6435  143.4907  162.8338 N.pl3   1  UNL1       -0.2679
     21 H         143.5119  143.7431  163.2227 H       1  UNL1        0.1565
     22 C         142.2498  144.0049  161.4808 C.ar    1  UNL1        0.1344
     23 C         141.1301  144.9946  161.3512 C.ar    1  UNL1        0.0358
     24 C         140.7364  145.5088  159.9981 C.ar    1  UNL1        0.0190
     25 C         141.4625  145.0332  158.7747 C.ar    1  UNL1        0.0675
     26 C         142.5822  144.0436  158.9043 C.ar    1  UNL1        0.1147
     27 N         142.9759  143.5294  160.2574 N.ar    1  UNL1       -0.2277
     28 N         141.0689  145.5474  157.4217 N.pl3   1  UNL1       -0.3035
     29 C         139.8381  146.3911  157.2689 C.3     1  UNL1        0.1079
     30 C         139.4445  146.9052  155.9159 C.3     1  UNL1        0.0903
     31 N         140.2816  146.5757  154.7157 N.3     1  UNL1       -0.2946
     32 C         141.5124  145.7320  154.8685 C.3     1  UNL1        0.0903
     33 C         141.9060  145.2178  156.2214 C.3     1  UNL1        0.1079
     34 H         140.5814  147.4636  154.3130 H       1  UNL1        0.1233
@<TRIPOS>BOND
     1     1     2    1
     2     2     3   ar
     3     3     4   ar
     4     4     5   ar
     5     5     6   ar
     6     6     7   ar
     7     7     8   ar
     8     8     9   ar
     9     9    10   ar
    10    10    20    1
    11    20    22    1
    12    22    23   ar
    13    23    24   ar
    14    24    25   ar
    15    25    28    1
    16    28    29    1
    17    29    30    1
    18    30    31    1
    19    31    32    1
    20    32    33    1
    21    25    26   ar
    22    26    27   ar
    23    10    11   ar
    24    11    12   ar
    25    12    13   ar
    26    13    15    1
    27    15    16    1
    28    16    17    1
    29    17    18    1
    30    18    19    1
    31    13    14   ar
    32    14     2   ar
    33    14     6   ar
    34    12     7   ar
    35    19    15    1
    36    27    22   ar
    37    33    28    1
    38    20    21    1
    39    31    34    1
@<TRIPOS>MOLECULE
*****
 34 39 0 0 0
SMALL
GASTEIGER

@<TRIPOS>ATOM
      1 F         137.7284  141.0533  158.7067 F       1  UNL1       -0.1816
      2 C         138.7656  140.0228  158.3713 C.ar    1  UNL1        0.2382
      3 N         138.6667  139.2484  157.0905 N.ar    1  UNL1       -0.2152
      4 C         139.7038  138.2179  156.7551 C.ar    1  UNL1        0.1014
      5 C         140.8399  137.9619  157.7005 C.ar    1  UNL1        0.0224
      6 C         140.9388  138.7364  158.9813 C.ar    1  UNL1        0.0256
      7 C         141.9374  138.7026  160.1000 C.ar    1  UNL1        0.0550
      8 C         143.1749  137.8830  160.3164 C.ar    1  UNL1        0.1048
      9 N         143.9924  138.0730  161.5596 N.ar    1  UNL1       -0.2119
     10 C         143.5725  139.0825  162.5865 C.ar    1  UNL1        0.2231
     11 N         142.3350  139.9021  162.3701 N.ar    1  UNL1       -0.1961
     12 C         141.5175  139.7122  161.1269 C.ar    1  UNL1        0.1482
     13 N         140.2593  140.3699  160.6427 N.ar    1  UNL1       -0.3114
     14 C         139.9016  139.7668  159.3167 C.ar    1  UNL1        0.1076
     15 C         139.4932  141.4424  161.3589 C.3     1  UNL1        0.0870
     16 C         139.9305  142.8655  161.5420 C.3     1  UNL1        0.0226
     17 C         138.8629  143.5828  162.3139 C.3     1  UNL1        0.0020
     18 C         137.7658  142.6029  162.6079 C.3     1  UNL1        0.0020
     19 C         138.1555  141.2802  162.0176 C.3     1  UNL1        0.0226
     20 N         144.3900  139.2725  163.8297 N.pl3   1  UNL1       -0.2679
     21 H         145.3508  139.0576  163.8247 H       1  UNL1        0.1565
     22 C         143.7438  139.7900  165.0804 C.ar    1  UNL1        0.1344
     23 C         143.2043  138.8295  166.0985 C.ar    1  UNL1        0.0358
     24 C         142.5579  139.3470  167.3493 C.ar    1  UNL1        0.0190
     25 C         142.4511  140.8250  167.5821 C.ar    1  UNL1        0.0675
     26 C         142.9907  141.7855  166.5640 C.ar    1  UNL1        0.1147
     27 N         143.6370  141.2680  165.3132 N.ar    1  UNL1       -0.2277
     28 N         141.8049  141.3426  168.8329 N.pl3   1  UNL1       -0.3035
     29 C         142.2336  140.8177  170.1710 C.3     1  UNL1        0.1079
     30 C         141.5873  141.3352  171.4218 C.3     1  UNL1        0.0903
     31 N         140.5124  142.3776  171.3344 N.3     1  UNL1       -0.2946
     32 C         140.0836  142.9025  169.9963 C.3     1  UNL1        0.0903
     33 C         140.7298  142.3851  168.7455 C.3     1  UNL1        0.1079
     34 H         140.8353  143.1796  171.8756 H       1  UNL1        0.1233
@<TRIPOS>BOND
     1     1     2    1
     2     2     3   ar
     3     3     4   ar
     4     4     5   ar
     5     5     6   ar
     6     6     7   ar
     7     7     8   ar
     8     8     9   ar
     9     9    10   ar
    10    10    20    1
    11    20    22    1
    12    22    23   ar
    13    23    24   ar
    14    24    25   ar
    15    25    28    1
    16    28    29    1
    17    29    30    1
    18    30    31    1
    19    31    32    1
    20    32    33    1
    21    25    26   ar
    22    26    27   ar
    23    10    11   ar
    24    11    12   ar
    25    12    13   ar
    26    13    15    1
    27    15    16    1
    28    16    17    1
    29    17    18    1
    30    18    19    1
    31    13    14   ar
    32    14     2   ar
    33    14     6   ar
    34    12     7   ar
    35    19    15    1
    36    27    22   ar
    37    33    28    1
    38    20    21    1
    39    31    34    1
@<TRIPOS>MOLECULE
*****
 34 39 0 0 0
SMALL
GASTEIGER

@<TRIPOS>ATOM
      1 F         143.9766  142.8242  168.0907 F       1  UNL1       -0.1816
      2 C         142.9475  141.8480  168.5786 C.ar    1  UNL1        0.2382
      3 N         143.0240  141.3145  169.9784 N.ar    1  UNL1       -0.2152
      4 C         141.9950  140.3383  170.4662 C.ar    1  UNL1        0.1014
      5 C         140.8894  139.8955  169.5543 C.ar    1  UNL1        0.0224
      6 C         140.8129  140.4291  168.1545 C.ar    1  UNL1        0.0256
      7 C         139.8458  140.1773  167.0359 C.ar    1  UNL1        0.0550
      8 C         138.6281  139.3068  166.9387 C.ar    1  UNL1        0.1048
      9 N         137.8418  139.2568  165.6623 N.ar    1  UNL1       -0.2119
     10 C         138.2731  140.0774  164.4831 C.ar    1  UNL1        0.2231
     11 N         139.4908  140.9479  164.5802 N.ar    1  UNL1       -0.1961
     12 C         140.2771  140.9978  165.8567 C.ar    1  UNL1        0.1482
     13 N         141.5108  141.7568  166.2465 N.ar    1  UNL1       -0.3114
     14 C         141.8419  141.4053  167.6666 C.ar    1  UNL1        0.1076
     15 C         142.2786  142.7015  165.3701 C.3     1  UNL1        0.0870
     16 C         141.7194  143.9010  164.6642 C.3     1  UNL1        0.0226
     17 C         142.8355  144.5533  163.9035 C.3     1  UNL1        0.0020
     18 C         144.0847  143.7570  164.1393 C.3     1  UNL1        0.0020
     19 C         143.7403  142.6124  165.0457 C.3     1  UNL1        0.0226
     20 N         137.4867  140.0275  163.2066 N.pl3   1  UNL1       -0.2679
     21 H         136.5160  140.1908  163.2198 H       1  UNL1        0.1565
     22 C         138.1795  139.7289  161.9102 C.ar    1  UNL1        0.1344
     23 C         137.8462  140.5221  160.6816 C.ar    1  UNL1        0.0358
     24 C         138.5390  140.2234  159.3851 C.ar    1  UNL1        0.0190
     25 C         139.5652  139.1314  159.3173 C.ar    1  UNL1        0.0675
     26 C         139.8985  138.3382  160.5459 C.ar    1  UNL1        0.1147
     27 N         139.2057  138.6369  161.8425 N.ar    1  UNL1       -0.2277
     28 N         140.2581  138.8327  158.0209 N.pl3   1  UNL1       -0.3035
     29 C         139.8499  137.6385  157.2102 C.3     1  UNL1        0.1079
     30 C         140.5427  137.3398  155.9138 C.3     1  UNL1        0.0903
     31 N         141.6437  138.2352  155.4281 N.3     1  UNL1       -0.2946
     32 C         142.0518  139.4294  156.2387 C.3     1  UNL1        0.0903
     33 C         141.3590  139.7282  157.5351 C.3     1  UNL1        0.1079
     34 H         141.3575  138.5841  154.5133 H       1  UNL1        0.1233
@<TRIPOS>BOND
     1     1     2    1
     2     2     3   ar
     3     3     4   ar
     4     4     5   ar
     5     5     6   ar
     6     6     7   ar
     7     7     8   ar
     8     8     9   ar
     9     9    10   ar
    10    10    20    1
    11    20    22    1
    12    22    23   ar
    13    23    24   ar
    14    24    25   ar
    15    25    28    1
    16    28    29    1
    17    29    30    1
    18    30    31    1
    19    31    32    1
    20    32    33    1
    21    25    26   ar
    22    26    27   ar
    23    10    11   ar
    24    11    12   ar
    25    12    13   ar
    26    13    15    1
    27    15    16    1
    28    16    17    1
    29    17    18    1
    30    18    19    1
    31    13    14   ar
    32    14     2   ar
    33    14     6   ar
    34    12     7   ar
    35    19    15    1
    36    27    22   ar
    37    33    28    1
    38    20    21    1
    39    31    34    1
@<TRIPOS>MOLECULE
*****
 34 39 0 0 0
SMALL
GASTEIGER

@<TRIPOS>ATOM
      1 F         140.0413  144.8411  159.1180 F       1  UNL1       -0.1816
      2 C         139.5799  143.4822  158.6815 C.ar    1  UNL1        0.2382
      3 N         138.9063  143.3100  157.3524 N.ar    1  UNL1       -0.2152
      4 C         138.4449  141.9511  156.9160 C.ar    1  UNL1        0.1014
      5 C         138.6571  140.7644  157.8086 C.ar    1  UNL1        0.0224
      6 C         139.3306  140.9367  159.1377 C.ar    1  UNL1        0.0256
      7 C         139.6745  139.9598  160.2228 C.ar    1  UNL1        0.0550
      8 C         139.4610  138.4802  160.3458 C.ar    1  UNL1        0.1048
      9 N         139.9214  137.7557  161.5760 N.ar    1  UNL1       -0.2119
     10 C         140.5952  138.5108  162.6831 C.ar    1  UNL1        0.2231
     11 N         140.8087  139.9904  162.5600 N.ar    1  UNL1       -0.1961
     12 C         140.3484  140.7149  161.3299 C.ar    1  UNL1        0.1482
     13 N         140.4210  142.1585  160.9290 N.ar    1  UNL1       -0.3114
     14 C         139.7920  142.2956  159.5742 C.ar    1  UNL1        0.1076
     15 C         141.0179  143.2700  161.7405 C.3     1  UNL1        0.0870
     16 C         142.4810  143.5033  161.9745 C.3     1  UNL1        0.0226
     17 C         142.6238  144.7207  162.8390 C.3     1  UNL1        0.0020
     18 C         141.2489  145.2399  163.1394 C.3     1  UNL1        0.0020
     19 C         140.2565  144.3432  162.4604 C.3     1  UNL1        0.0226
     20 N         141.0556  137.7863  163.9132 N.pl3   1  UNL1       -0.2679
     21 H         141.2433  136.8207  163.8745 H       1  UNL1        0.1565
     22 C         141.2301  138.5332  165.2022 C.ar    1  UNL1        0.1344
     23 C         142.5941  138.6702  165.8110 C.ar    1  UNL1        0.0358
     24 C         142.7685  139.4171  167.1001 C.ar    1  UNL1        0.0190
     25 C         141.5788  140.0269  167.7805 C.ar    1  UNL1        0.0675
     26 C         140.2148  139.8899  167.1717 C.ar    1  UNL1        0.1147
     27 N         140.0404  139.1430  165.8826 N.ar    1  UNL1       -0.2277
     28 N         141.7531  140.7738  169.0696 N.pl3   1  UNL1       -0.3035
     29 C         142.7204  141.9176  169.1487 C.3     1  UNL1        0.1079
     30 C         142.8947  142.6644  170.4378 C.3     1  UNL1        0.0903
     31 N         142.1019  142.2676  171.6477 N.3     1  UNL1       -0.2946
     32 C         141.1347  141.1238  171.5685 C.3     1  UNL1        0.0903
     33 C         140.9603  140.3769  170.2795 C.3     1  UNL1        0.1079
     34 H         141.5654  143.0878  171.9302 H       1  UNL1        0.1233
@<TRIPOS>BOND
     1     1     2    1
     2     2     3   ar
     3     3     4   ar
     4     4     5   ar
     5     5     6   ar
     6     6     7   ar
     7     7     8   ar
     8     8     9   ar
     9     9    10   ar
    10    10    20    1
    11    20    22    1
    12    22    23   ar
    13    23    24   ar
    14    24    25   ar
    15    25    28    1
    16    28    29    1
    17    29    30    1
    18    30    31    1
    19    31    32    1
    20    32    33    1
    21    25    26   ar
    22    26    27   ar
    23    10    11   ar
    24    11    12   ar
    25    12    13   ar
    26    13    15    1
    27    15    16    1
    28    16    17    1
    29    17    18    1
    30    18    19    1
    31    13    14   ar
    32    14     2   ar
    33    14     6   ar
    34    12     7   ar
    35    19    15    1
    36    27    22   ar
    37    33    28    1
    38    20    21    1
    39    31    34    1
@<TRIPOS>MOLECULE
*****
 34 39 0 0 0
SMALL
GASTEIGER

@<TRIPOS>ATOM
      1 F         144.7233  140.7846  158.7450 F       1  UNL1       -0.1816
      2 C         143.5677  139.8642  158.4857 C.ar    1  UNL1        0.2382
      3 N         143.5631  138.9912  157.2659 N.ar    1  UNL1       -0.2152
      4 C         142.4074  138.0708  157.0066 C.ar    1  UNL1        0.1014
      5 C         141.2563  138.0233  157.9671 C.ar    1  UNL1        0.0224
      6 C         141.2608  138.8962  159.1869 C.ar    1  UNL1        0.0256
      7 C         140.2741  139.0650  160.3040 C.ar    1  UNL1        0.0550
      8 C         138.9491  138.4180  160.5791 C.ar    1  UNL1        0.1048
      9 N         138.1699  138.7958  161.8039 N.ar    1  UNL1       -0.2119
     10 C         138.7158  139.8205  162.7537 C.ar    1  UNL1        0.2231
     11 N         140.0408  140.4675  162.4785 N.ar    1  UNL1       -0.1961
     12 C         140.8200  140.0898  161.2537 C.ar    1  UNL1        0.1482
     13 N         142.1440  140.5543  160.7235 N.ar    1  UNL1       -0.3114
     14 C         142.4165  139.8166  159.4462 C.ar    1  UNL1        0.1076
     15 C         143.0386  141.5769  161.3591 C.3     1  UNL1        0.0870
     16 C         142.8164  143.0604  161.3657 C.3     1  UNL1        0.0226
     17 C         143.9529  143.6960  162.1104 C.3     1  UNL1        0.0020
     18 C         144.8774  142.6053  162.5641 C.3     1  UNL1        0.0020
     19 C         144.3123  141.2957  162.0997 C.3     1  UNL1        0.0226
     20 N         137.9366  140.1983  163.9785 N.pl3   1  UNL1       -0.2679
     21 H         136.9530  140.2258  163.9471 H       1  UNL1        0.1565
     22 C         138.6561  140.5341  165.2510 C.ar    1  UNL1        0.1344
     23 C         138.7339  139.5244  166.3575 C.ar    1  UNL1        0.0358
     24 C         139.4535  139.8602  167.6302 C.ar    1  UNL1        0.0190
     25 C         140.0952  141.2059  167.7963 C.ar    1  UNL1        0.0675
     26 C         140.0173  142.2156  166.6898 C.ar    1  UNL1        0.1147
     27 N         139.2978  141.8797  165.4171 N.ar    1  UNL1       -0.2277
     28 N         140.8147  141.5418  169.0688 N.pl3   1  UNL1       -0.3035
     29 C         141.9331  142.5412  169.0566 C.3     1  UNL1        0.1079
     30 C         142.6526  142.8771  170.3292 C.3     1  UNL1        0.0903
     31 N         142.2538  142.2136  171.6139 N.3     1  UNL1       -0.2946
     32 C         141.1354  141.2141  171.6261 C.3     1  UNL1        0.0903
     33 C         140.4158  140.8782  170.3536 C.3     1  UNL1        0.1079
     34 H         141.9909  142.9575  172.2603 H       1  UNL1        0.1233
@<TRIPOS>BOND
     1     1     2    1
     2     2     3   ar
     3     3     4   ar
     4     4     5   ar
     5     5     6   ar
     6     6     7   ar
     7     7     8   ar
     8     8     9   ar
     9     9    10   ar
    10    10    20    1
    11    20    22    1
    12    22    23   ar
    13    23    24   ar
    14    24    25   ar
    15    25    28    1
    16    28    29    1
    17    29    30    1
    18    30    31    1
    19    31    32    1
    20    32    33    1
    21    25    26   ar
    22    26    27   ar
    23    10    11   ar
    24    11    12   ar
    25    12    13   ar
    26    13    15    1
    27    15    16    1
    28    16    17    1
    29    17    18    1
    30    18    19    1
    31    13    14   ar
    32    14     2   ar
    33    14     6   ar
    34    12     7   ar
    35    19    15    1
    36    27    22   ar
    37    33    28    1
    38    20    21    1
    39    31    34    1
@<TRIPOS>MOLECULE
*****
 34 39 0 0 0
SMALL
GASTEIGER

@<TRIPOS>ATOM
      1 F         145.2126  142.5192  159.2975 F       1  UNL1       -0.1816
      2 C         143.8510  142.7466  158.7106 C.ar    1  UNL1        0.2382
      3 N         143.7137  143.1947  157.2857 N.ar    1  UNL1       -0.2152
      4 C         142.3522  143.4222  156.6989 C.ar    1  UNL1        0.1014
      5 C         141.1279  143.2015  157.5370 C.ar    1  UNL1        0.0224
      6 C         141.2651  142.7534  158.9618 C.ar    1  UNL1        0.0256
      7 C         140.2475  142.4565  160.0231 C.ar    1  UNL1        0.0550
      8 C         138.7484  142.5073  160.0184 C.ar    1  UNL1        0.1048
      9 N         137.9819  142.1471  161.2565 N.ar    1  UNL1       -0.2119
     10 C         138.7145  141.7361  162.4992 C.ar    1  UNL1        0.2231
     11 N         140.2136  141.6854  162.5039 N.ar    1  UNL1       -0.1961
     12 C         140.9801  142.0456  161.2658 C.ar    1  UNL1        0.1482
     13 N         142.4506  142.0885  160.9726 N.ar    1  UNL1       -0.3114
     14 C         142.6267  142.5260  159.5487 C.ar    1  UNL1        0.1076
     15 C         143.5516  141.7529  161.9345 C.3     1  UNL1        0.0870
     16 C         143.8656  140.3890  162.4740 C.3     1  UNL1        0.0226
     17 C         145.0399  140.5154  163.3986 C.3     1  UNL1        0.0020
     18 C         145.4518  141.9574  163.4305 C.3     1  UNL1        0.0020
     19 C         144.5318  142.7222  162.5256 C.3     1  UNL1        0.0226
     20 N         137.9480  141.3759  163.7373 N.pl3   1  UNL1       -0.2679
     21 H         136.9771  141.2209  163.6874 H       1  UNL1        0.1565
     22 C         138.6608  141.2520  165.0511 C.ar    1  UNL1        0.1344
     23 C         139.5046  142.3845  165.5564 C.ar    1  UNL1        0.0358
     24 C         140.2175  142.2606  166.8704 C.ar    1  UNL1        0.0190
     25 C         140.0866  141.0040  167.6791 C.ar    1  UNL1        0.0675
     26 C         139.2428  139.8715  167.1738 C.ar    1  UNL1        0.1147
     27 N         138.5299  139.9954  165.8598 N.ar    1  UNL1       -0.2277
     28 N         140.7994  140.8800  168.9930 N.pl3   1  UNL1       -0.3035
     29 C         140.3916  141.7409  170.1517 C.3     1  UNL1        0.1079
     30 C         141.1045  141.6169  171.4656 C.3     1  UNL1        0.0903
     31 N         142.2250  140.6320  171.6209 N.3     1  UNL1       -0.2946
     32 C         142.6328  139.7711  170.4623 C.3     1  UNL1        0.0903
     33 C         141.9201  139.8951  169.1483 C.3     1  UNL1        0.1079
     34 H         141.9600  140.0013  172.3775 H       1  UNL1        0.1233
@<TRIPOS>BOND
     1     1     2    1
     2     2     3   ar
     3     3     4   ar
     4     4     5   ar
     5     5     6   ar
     6     6     7   ar
     7     7     8   ar
     8     8     9   ar
     9     9    10   ar
    10    10    20    1
    11    20    22    1
    12    22    23   ar
    13    23    24   ar
    14    24    25   ar
    15    25    28    1
    16    28    29    1
    17    29    30    1
    18    30    31    1
    19    31    32    1
    20    32    33    1
    21    25    26   ar
    22    26    27   ar
    23    10    11   ar
    24    11    12   ar
    25    12    13   ar
    26    13    15    1
    27    15    16    1
    28    16    17    1
    29    17    18    1
    30    18    19    1
    31    13    14   ar
    32    14     2   ar
    33    14     6   ar
    34    12     7   ar
    35    19    15    1
    36    27    22   ar
    37    33    28    1
    38    20    21    1
    39    31    34    1
