@<TRIPOS>MOLECULE
*****
 38 41 0 0 0
SMALL
GASTEIGER

@<TRIPOS>ATOM
      1 C         142.4390  139.7217  162.0539 C.ar    1  UNL1        0.1200
      2 N         141.6685  138.8996  161.0638 N.ar    1  UNL1       -0.2309
      3 C         142.4755  138.8172  159.8020 C.ar    1  UNL1        0.0997
      4 C         143.7448  139.5884  160.0123 C.ar    1  UNL1        0.0961
      5 N         143.7222  140.1475  161.4041 N.ar    1  UNL1       -0.3123
      6 C         142.0822  138.0910  158.5498 C.ar    1  UNL1        0.0193
      7 C         140.8409  138.4914  157.8090 C.ar    1  UNL1        0.0038
      8 C         140.4476  137.7654  156.5569 C.ar    1  UNL1        0.0296
      9 C         141.2957  136.6387  156.0453 C.ar    1  UNL1        0.1440
     10 F         140.9025  135.9126  154.7932 F       1  UNL1       -0.2042
     11 C         142.5370  136.2383  156.7861 C.ar    1  UNL1        0.0988
     12 C         142.9303  136.9645  158.0384 C.ar    1  UNL1        0.0077
     13 C         143.3851  135.1117  156.2747 C.3     1  UNL1        0.4207
     14 F         144.2332  133.9852  155.7632 F       1  UNL1       -0.1658
     15 F         142.5458  134.1323  157.0403 F       1  UNL1       -0.1658
     16 F         144.2245  136.0912  155.5091 F       1  UNL1       -0.1658
     17 N         141.1308  140.7334  166.2390 N.pl3   1  UNL1       -0.2931
     18 C         141.9454  139.4996  165.9854 C.3     1  UNL1        0.0926
     19 C         142.3815  139.1624  164.5904 C.3     1  UNL1        0.0290
     20 C         142.0030  140.0590  163.4489 C.3     1  UNL1        0.0603
     21 C         141.1883  141.2927  163.7025 C.3     1  UNL1        0.0290
     22 C         140.7523  141.6299  165.0976 C.3     1  UNL1        0.0926
     23 C         139.5862  140.2947  168.2815 C.ar    1  UNL1        0.0628
     24 C         139.1502  140.6319  169.6766 C.ar    1  UNL1        0.1298
     25 N         138.0416  139.8561  170.3241 N.pl3   1  UNL1       -0.3425
     26 N         139.8226  141.7450  170.4241 N.ar    1  UNL1       -0.2094
     27 C         140.9311  142.5208  169.7767 C.ar    1  UNL1        0.2012
     28 N         141.3672  142.1836  168.3817 N.ar    1  UNL1       -0.2089
     29 C         140.6947  141.0706  167.6341 C.ar    1  UNL1        0.1361
     30 H         137.6002  139.1255  169.8334 H       1  UNL1        0.1437
     31 H         137.7554  140.0774  171.2397 H       1  UNL1        0.1437
     32 C         138.0450  139.4904  166.3508 C.2     1  UNL1        0.0002
     33 C         138.9137  139.1817  167.5340 C.2     1  UNL1        0.0056
     34 C         144.7946  140.9852  162.0352 C.3     1  UNL1        0.1245
     35 C         144.6819  142.4808  162.0241 C.3     1  UNL1        0.0970
     36 N         144.3106  143.2144  163.2787 N.3     1  UNL1       -0.2687
     37 C         143.6749  144.5704  163.1944 C.3     1  UNL1        0.0897
     38 C         144.5751  142.5920  164.6176 C.3     1  UNL1        0.0897
@<TRIPOS>BOND
     1    32    33    2
     2    33    23    1
     3    23    24   ar
     4    24    25    1
     5    24    26   ar
     6    26    27   ar
     7    27    28   ar
     8    28    29   ar
     9    29    17    1
    10    17    18    1
    11    18    19    1
    12    19    20    1
    13    20     1    1
    14     1     2   ar
    15     2     3   ar
    16     3     6    1
    17     6     7   ar
    18     7     8   ar
    19     8     9   ar
    20     9    10    1
    21     9    11   ar
    22    11    13    1
    23    13    14    1
    24    13    15    1
    25    13    16    1
    26    11    12   ar
    27     3     4   ar
    28     4     5   ar
    29     5    34    1
    30    34    35    1
    31    35    36    1
    32    36    37    1
    33    36    38    1
    34    20    21    1
    35    21    22    1
    36    29    23   ar
    37    22    17    1
    38     5     1   ar
    39    12     6   ar
    40    25    30    1
    41    25    31    1
@<TRIPOS>MOLECULE
*****
 38 41 0 0 0
SMALL
GASTEIGER

@<TRIPOS>ATOM
      1 C         143.2478  140.3542  163.1010 C.ar    1  UNL1        0.1200
      2 N         142.5191  140.0117  164.3666 N.ar    1  UNL1       -0.2309
      3 C         143.0546  140.8865  165.4611 C.ar    1  UNL1        0.0997
      4 C         144.1144  141.7697  164.8720 C.ar    1  UNL1        0.0961
      5 N         144.2337  141.4407  163.4134 N.ar    1  UNL1       -0.3123
      6 C         142.6087  140.8794  166.8933 C.ar    1  UNL1        0.0193
      7 C         142.6527  139.6068  167.6862 C.ar    1  UNL1        0.0038
      8 C         142.2068  139.5996  169.1183 C.ar    1  UNL1        0.0296
      9 C         141.7169  140.8651  169.7577 C.ar    1  UNL1        0.1440
     10 F         141.2710  140.8580  171.1898 F       1  UNL1       -0.2042
     11 C         141.6729  142.1377  168.9647 C.ar    1  UNL1        0.0988
     12 C         142.1188  142.1448  167.5325 C.ar    1  UNL1        0.0077
     13 C         141.1830  143.4031  169.6040 C.3     1  UNL1        0.4207
     14 F         140.6931  144.6685  170.2433 F       1  UNL1       -0.1658
     15 F         142.4888  143.5425  170.3287 F       1  UNL1       -0.1658
     16 F         139.8771  143.2636  168.8793 F       1  UNL1       -0.1658
     17 N         142.5915  138.4555  159.0744 N.pl3   1  UNL1       -0.2931
     18 C         142.9040  137.5990  160.2654 C.3     1  UNL1        0.0926
     19 C         143.1228  138.2319  161.6076 C.3     1  UNL1        0.0290
     20 C         143.0290  139.7213  161.7588 C.3     1  UNL1        0.0603
     21 C         142.7165  140.5779  160.5677 C.3     1  UNL1        0.0290
     22 C         142.4977  139.9449  159.2255 C.3     1  UNL1        0.0926
     23 C         140.9800  137.6489  157.2028 C.ar    1  UNL1        0.0628
     24 C         140.7613  137.0160  155.8606 C.ar    1  UNL1        0.1298
     25 N         139.3685  136.8422  155.3313 N.pl3   1  UNL1       -0.3425
     26 N         141.9353  136.5568  155.0477 N.ar    1  UNL1       -0.2094
     27 C         143.3280  136.7305  155.5769 C.ar    1  UNL1        0.2012
     28 N         143.5467  137.3634  156.9191 N.ar    1  UNL1       -0.2089
     29 C         142.3727  137.8226  157.7321 C.ar    1  UNL1        0.1361
     30 H         138.5980  137.1436  155.8649 H       1  UNL1        0.1437
     31 H         139.2250  136.4268  154.4504 H       1  UNL1        0.1437
     32 C         139.2225  139.4708  157.7872 C.2     1  UNL1        0.0002
     33 C         139.8060  138.1081  158.0158 C.2     1  UNL1        0.0056
     34 C         145.1740  142.0850  162.4384 C.3     1  UNL1        0.1245
     35 C         144.8170  143.3987  161.8084 C.3     1  UNL1        0.0970
     36 N         143.6289  144.1694  162.3028 N.3     1  UNL1       -0.2687
     37 C         143.7699  145.0941  163.4754 C.3     1  UNL1        0.0897
     38 C         142.2999  144.0153  161.6246 C.3     1  UNL1        0.0897
@<TRIPOS>BOND
     1    32    33    2
     2    33    23    1
     3    23    24   ar
     4    24    25    1
     5    24    26   ar
     6    26    27   ar
     7    27    28   ar
     8    28    29   ar
     9    29    17    1
    10    17    18    1
    11    18    19    1
    12    19    20    1
    13    20     1    1
    14     1     2   ar
    15     2     3   ar
    16     3     6    1
    17     6     7   ar
    18     7     8   ar
    19     8     9   ar
    20     9    10    1
    21     9    11   ar
    22    11    13    1
    23    13    14    1
    24    13    15    1
    25    13    16    1
    26    11    12   ar
    27     3     4   ar
    28     4     5   ar
    29     5    34    1
    30    34    35    1
    31    35    36    1
    32    36    37    1
    33    36    38    1
    34    20    21    1
    35    21    22    1
    36    29    23   ar
    37    22    17    1
    38     5     1   ar
    39    12     6   ar
    40    25    30    1
    41    25    31    1
@<TRIPOS>MOLECULE
*****
 38 41 0 0 0
SMALL
GASTEIGER

@<TRIPOS>ATOM
      1 C         141.4601  141.2145  163.1288 C.ar    1  UNL1        0.1200
      2 N         142.2722  141.4767  164.3624 N.ar    1  UNL1       -0.2309
      3 C         141.3266  141.8151  165.4766 C.ar    1  UNL1        0.0997
      4 C         139.9301  141.7621  164.9316 C.ar    1  UNL1        0.0961
      5 N         140.0126  141.3909  163.4806 N.ar    1  UNL1       -0.3123
      6 C         141.7101  142.1481  166.8880 C.ar    1  UNL1        0.0193
      7 C         143.1483  142.0838  167.3095 C.ar    1  UNL1        0.0038
      8 C         143.5319  142.4168  168.7207 C.ar    1  UNL1        0.0296
      9 C         142.4772  142.8141  169.7108 C.ar    1  UNL1        0.1440
     10 F         142.8608  143.1471  171.1221 F       1  UNL1       -0.2042
     11 C         141.0391  142.8784  169.2893 C.ar    1  UNL1        0.0988
     12 C         140.6556  142.5454  167.8779 C.ar    1  UNL1        0.0077
     13 C         139.9845  143.2756  170.2793 C.3     1  UNL1        0.4207
     14 F         138.9300  143.6729  171.2692 F       1  UNL1       -0.1658
     15 F         139.6010  141.8354  170.4486 F       1  UNL1       -0.1658
     16 F         140.3681  144.7158  170.1099 F       1  UNL1       -0.1658
     17 N         143.0817  140.0954  159.0831 N.pl3   1  UNL1       -0.2931
     18 C         142.1009  141.2230  159.2123 C.3     1  UNL1        0.0926
     19 C         141.5604  141.5960  160.5609 C.3     1  UNL1        0.0290
     20 C         142.0006  140.8415  161.7803 C.3     1  UNL1        0.0603
     21 C         142.9814  139.7139  161.6511 C.3     1  UNL1        0.0290
     22 C         143.5219  139.3409  160.3024 C.3     1  UNL1        0.0926
     23 C         142.9729  138.6259  156.9433 C.ar    1  UNL1        0.0628
     24 C         143.5134  138.2529  155.5947 C.ar    1  UNL1        0.1298
     25 N         142.8641  137.1563  154.8035 N.pl3   1  UNL1       -0.3425
     26 N         144.7032  138.9765  155.0373 N.ar    1  UNL1       -0.2094
     27 C         145.3526  140.0730  155.8285 C.ar    1  UNL1        0.2012
     28 N         144.8120  140.4460  157.1770 N.ar    1  UNL1       -0.2089
     29 C         143.6222  139.7224  157.7344 C.ar    1  UNL1        0.1361
     30 H         142.0831  136.6814  155.1694 H       1  UNL1        0.1437
     31 H         143.2189  136.9115  153.9184 H       1  UNL1        0.1437
     32 C         140.3988  138.4069  157.2193 C.2     1  UNL1        0.0002
     33 C         141.7830  137.9023  157.5007 C.2     1  UNL1        0.0056
     34 C         138.8515  141.2251  162.5455 C.3     1  UNL1        0.1245
     35 C         138.0845  139.9363  162.5232 C.3     1  UNL1        0.0970
     36 N         138.7811  138.6548  162.1735 N.3     1  UNL1       -0.2687
     37 C         138.9508  137.5858  163.2120 C.3     1  UNL1        0.0897
     38 C         139.3080  138.4422  160.7853 C.3     1  UNL1        0.0897
@<TRIPOS>BOND
     1    32    33    2
     2    33    23    1
     3    23    24   ar
     4    24    25    1
     5    24    26   ar
     6    26    27   ar
     7    27    28   ar
     8    28    29   ar
     9    29    17    1
    10    17    18    1
    11    18    19    1
    12    19    20    1
    13    20     1    1
    14     1     2   ar
    15     2     3   ar
    16     3     6    1
    17     6     7   ar
    18     7     8   ar
    19     8     9   ar
    20     9    10    1
    21     9    11   ar
    22    11    13    1
    23    13    14    1
    24    13    15    1
    25    13    16    1
    26    11    12   ar
    27     3     4   ar
    28     4     5   ar
    29     5    34    1
    30    34    35    1
    31    35    36    1
    32    36    37    1
    33    36    38    1
    34    20    21    1
    35    21    22    1
    36    29    23   ar
    37    22    17    1
    38     5     1   ar
    39    12     6   ar
    40    25    30    1
    41    25    31    1
@<TRIPOS>MOLECULE
*****
 38 41 0 0 0
SMALL
GASTEIGER

@<TRIPOS>ATOM
      1 C         141.5018  140.9508  162.7917 C.ar    1  UNL1        0.1200
      2 N         141.4770  140.3835  164.1801 N.ar    1  UNL1       -0.2309
      3 C         141.0740  141.4795  165.1215 C.ar    1  UNL1        0.0997
      4 C         140.8498  142.7243  164.3150 C.ar    1  UNL1        0.0961
      5 N         141.1142  142.3975  162.8751 N.ar    1  UNL1       -0.3123
      6 C         140.9220  141.3531  166.6084 C.ar    1  UNL1        0.0193
      7 C         139.9301  140.3847  167.1813 C.ar    1  UNL1        0.0038
      8 C         139.7780  140.2582  168.6681 C.ar    1  UNL1        0.0296
      9 C         140.6180  141.1002  169.5823 C.ar    1  UNL1        0.1440
     10 F         140.4660  140.9738  171.0691 F       1  UNL1       -0.2042
     11 C         141.6099  142.0687  169.0094 C.ar    1  UNL1        0.0988
     12 C         141.7619  142.1951  167.5225 C.ar    1  UNL1        0.0077
     13 C         142.4498  142.9107  169.9235 C.3     1  UNL1        0.4207
     14 F         143.2897  143.7527  170.8376 F       1  UNL1       -0.1658
     15 F         141.3347  143.9083  170.0291 F       1  UNL1       -0.1658
     16 F         143.5649  141.9130  169.8179 F       1  UNL1       -0.1658
     17 N         142.5541  138.7066  159.0359 N.pl3   1  UNL1       -0.2931
     18 C         141.1341  139.1168  159.2915 C.3     1  UNL1        0.0926
     19 C         140.7833  139.8648  160.5434 C.3     1  UNL1        0.0290
     20 C         141.8526  140.2027  161.5398 C.3     1  UNL1        0.0603
     21 C         143.2726  139.7926  161.2842 C.3     1  UNL1        0.0290
     22 C         143.6233  139.0445  160.0322 C.3     1  UNL1        0.0926
     23 C         143.4018  138.7026  156.5800 C.ar    1  UNL1        0.0628
     24 C         143.7526  137.9545  155.3281 C.ar    1  UNL1        0.1298
     25 N         144.2495  138.6985  154.1240 N.pl3   1  UNL1       -0.3425
     26 N         143.6064  136.4624  155.2801 N.ar    1  UNL1       -0.2094
     27 C         143.1095  135.7184  156.4840 C.ar    1  UNL1        0.2012
     28 N         142.7588  136.4665  157.7359 N.ar    1  UNL1       -0.2089
     29 C         142.9049  137.9586  157.7839 C.ar    1  UNL1        0.1361
     30 H         144.3454  139.6778  154.1555 H       1  UNL1        0.1437
     31 H         144.4797  138.2075  153.3024 H       1  UNL1        0.1437
     32 C         144.8557  140.8075  157.0332 C.2     1  UNL1        0.0002
     33 C         143.5480  140.1947  156.6279 C.2     1  UNL1        0.0056
     34 C         141.0093  143.3501  161.7212 C.3     1  UNL1        0.1245
     35 C         142.1446  144.2800  161.4107 C.3     1  UNL1        0.0970
     36 N         143.4279  144.1803  162.1809 N.3     1  UNL1       -0.2687
     37 C         144.4960  143.2248  161.7381 C.3     1  UNL1        0.0897
     38 C         143.6431  145.0361  163.3938 C.3     1  UNL1        0.0897
@<TRIPOS>BOND
     1    32    33    2
     2    33    23    1
     3    23    24   ar
     4    24    25    1
     5    24    26   ar
     6    26    27   ar
     7    27    28   ar
     8    28    29   ar
     9    29    17    1
    10    17    18    1
    11    18    19    1
    12    19    20    1
    13    20     1    1
    14     1     2   ar
    15     2     3   ar
    16     3     6    1
    17     6     7   ar
    18     7     8   ar
    19     8     9   ar
    20     9    10    1
    21     9    11   ar
    22    11    13    1
    23    13    14    1
    24    13    15    1
    25    13    16    1
    26    11    12   ar
    27     3     4   ar
    28     4     5   ar
    29     5    34    1
    30    34    35    1
    31    35    36    1
    32    36    37    1
    33    36    38    1
    34    20    21    1
    35    21    22    1
    36    29    23   ar
    37    22    17    1
    38     5     1   ar
    39    12     6   ar
    40    25    30    1
    41    25    31    1
@<TRIPOS>MOLECULE
*****
 38 41 0 0 0
SMALL
GASTEIGER

@<TRIPOS>ATOM
      1 C         141.2450  139.6816  163.6726 C.ar    1  UNL1        0.1200
      2 N         141.5358  140.4546  164.9247 N.ar    1  UNL1       -0.2309
      3 C         140.6693  139.9065  166.0196 C.ar    1  UNL1        0.0997
      4 C         139.8429  138.7947  165.4441 C.ar    1  UNL1        0.0961
      5 N         140.1988  138.6557  163.9936 N.ar    1  UNL1       -0.3123
      6 C         140.6350  140.3859  167.4405 C.ar    1  UNL1        0.0193
      7 C         139.4555  140.0683  168.3111 C.ar    1  UNL1        0.0038
      8 C         139.4213  140.5477  169.7319 C.ar    1  UNL1        0.0296
      9 C         140.5666  141.3449  170.2823 C.ar    1  UNL1        0.1440
     10 F         140.5324  141.8243  171.7031 F       1  UNL1       -0.2042
     11 C         141.7461  141.6625  169.4118 C.ar    1  UNL1        0.0988
     12 C         141.7803  141.1830  167.9909 C.ar    1  UNL1        0.0077
     13 C         142.8914  142.4596  169.9621 C.3     1  UNL1        0.4207
     14 F         144.0367  143.2567  170.5125 F       1  UNL1       -0.1658
     15 F         142.0238  143.6827  169.9961 F       1  UNL1       -0.1658
     16 F         143.7590  141.2365  169.9282 F       1  UNL1       -0.1658
     17 N         143.1729  140.3269  159.6580 N.pl3   1  UNL1       -0.2931
     18 C         142.0592  141.2252  160.1083 C.3     1  UNL1        0.0926
     19 C         141.4166  141.0101  161.4465 C.3     1  UNL1        0.0290
     20 C         141.8876  139.8967  162.3344 C.3     1  UNL1        0.0603
     21 C         143.0013  138.9984  161.8842 C.3     1  UNL1        0.0290
     22 C         143.6440  139.2135  160.5459 C.3     1  UNL1        0.0926
     23 C         143.3882  139.7182  157.1415 C.ar    1  UNL1        0.0628
     24 C         144.0309  139.9333  155.8033 C.ar    1  UNL1        0.1298
     25 N         143.6036  139.1094  154.6249 N.pl3   1  UNL1       -0.3425
     26 N         145.1008  140.9724  155.6435 N.ar    1  UNL1       -0.2094
     27 C         145.5281  141.7964  156.8218 C.ar    1  UNL1        0.2012
     28 N         144.8854  141.5812  158.1600 N.ar    1  UNL1       -0.2089
     29 C         143.8155  140.5421  158.3198 C.ar    1  UNL1        0.1361
     30 H         142.9014  138.4274  154.7298 H       1  UNL1        0.1437
     31 H         144.0254  139.2506  153.7466 H       1  UNL1        0.1437
     32 C         142.6927  137.2546  157.5852 C.2     1  UNL1        0.0002
     33 C         142.3183  138.6790  157.3013 C.2     1  UNL1        0.0056
     34 C         139.6115  137.6648  163.0327 C.3     1  UNL1        0.1245
     35 C         138.3956  138.0263  162.2322 C.3     1  UNL1        0.0970
     36 N         138.5348  138.8551  160.9897 N.3     1  UNL1       -0.2687
     37 C         137.7461  140.1223  160.8412 C.3     1  UNL1        0.0897
     38 C         139.4627  138.4166  159.8957 C.3     1  UNL1        0.0897
@<TRIPOS>BOND
     1    32    33    2
     2    33    23    1
     3    23    24   ar
     4    24    25    1
     5    24    26   ar
     6    26    27   ar
     7    27    28   ar
     8    28    29   ar
     9    29    17    1
    10    17    18    1
    11    18    19    1
    12    19    20    1
    13    20     1    1
    14     1     2   ar
    15     2     3   ar
    16     3     6    1
    17     6     7   ar
    18     7     8   ar
    19     8     9   ar
    20     9    10    1
    21     9    11   ar
    22    11    13    1
    23    13    14    1
    24    13    15    1
    25    13    16    1
    26    11    12   ar
    27     3     4   ar
    28     4     5   ar
    29     5    34    1
    30    34    35    1
    31    35    36    1
    32    36    37    1
    33    36    38    1
    34    20    21    1
    35    21    22    1
    36    29    23   ar
    37    22    17    1
    38     5     1   ar
    39    12     6   ar
    40    25    30    1
    41    25    31    1
@<TRIPOS>MOLECULE
*****
 38 41 0 0 0
SMALL
GASTEIGER

@<TRIPOS>ATOM
      1 C         141.7007  140.6080  163.0879 C.ar    1  UNL1        0.1200
      2 N         141.9543  140.0839  164.4703 N.ar    1  UNL1       -0.2309
      3 C         141.5195  141.1326  165.4506 C.ar    1  UNL1        0.0997
      4 C         140.9972  142.3049  164.6741 C.ar    1  UNL1        0.0961
      5 N         141.1092  141.9807  163.2139 N.ar    1  UNL1       -0.3123
      6 C         141.5940  141.0276  166.9451 C.ar    1  UNL1        0.0193
      7 C         142.4696  139.9890  167.5812 C.ar    1  UNL1        0.0038
      8 C         142.5441  139.8839  169.0756 C.ar    1  UNL1        0.0296
      9 C         141.7429  140.8174  169.9340 C.ar    1  UNL1        0.1440
     10 F         141.8174  140.7124  171.4284 F       1  UNL1       -0.2042
     11 C         140.8673  141.8560  169.2979 C.ar    1  UNL1        0.0988
     12 C         140.7928  141.9610  167.8034 C.ar    1  UNL1        0.0077
     13 C         140.0661  142.7894  170.1562 C.3     1  UNL1        0.4207
     14 F         139.2650  143.7229  171.0145 F       1  UNL1       -0.1658
     15 F         139.0028  141.7418  170.3030 F       1  UNL1       -0.1658
     16 F         141.1295  143.8371  170.0094 F       1  UNL1       -0.1658
     17 N         142.5632  138.4424  159.2387 N.pl3   1  UNL1       -0.2931
     18 C         143.6912  138.8445  160.1420 C.3     1  UNL1        0.0926
     19 C         143.4037  139.5663  161.4251 C.3     1  UNL1        0.0290
     20 C         141.9882  139.8861  161.8048 C.3     1  UNL1        0.0603
     21 C         140.8602  139.4841  160.9015 C.3     1  UNL1        0.0290
     22 C         141.1477  138.7622  159.6184 C.3     1  UNL1        0.0926
     23 C         143.2013  138.4966  156.7207 C.ar    1  UNL1        0.0628
     24 C         143.4888  137.7747  155.4377 C.ar    1  UNL1        0.1298
     25 N         143.8394  138.5507  154.2028 N.pl3   1  UNL1       -0.3425
     26 N         143.4257  136.2768  155.3895 N.ar    1  UNL1       -0.2094
     27 C         143.0751  135.5008  156.6243 C.ar    1  UNL1        0.2012
     28 N         142.7876  136.2227  157.9074 N.ar    1  UNL1       -0.2089
     29 C         142.8507  137.7206  157.9556 C.ar    1  UNL1        0.1361
     30 H         143.8808  139.5339  154.2344 H       1  UNL1        0.1437
     31 H         144.0281  138.0769  153.3607 H       1  UNL1        0.1437
     32 C         144.5673  140.6816  157.0521 C.2     1  UNL1        0.0002
     33 C         143.2644  139.9945  156.7689 C.2     1  UNL1        0.0056
     34 C         140.7012  142.8725  162.0789 C.3     1  UNL1        0.1245
     35 C         139.2897  142.8437  161.5724 C.3     1  UNL1        0.0970
     36 N         138.1445  142.9113  162.5388 N.3     1  UNL1       -0.2687
     37 C         137.7675  144.2213  163.1647 C.3     1  UNL1        0.0897
     38 C         137.3762  141.6687  162.8794 C.3     1  UNL1        0.0897
@<TRIPOS>BOND
     1    32    33    2
     2    33    23    1
     3    23    24   ar
     4    24    25    1
     5    24    26   ar
     6    26    27   ar
     7    27    28   ar
     8    28    29   ar
     9    29    17    1
    10    17    18    1
    11    18    19    1
    12    19    20    1
    13    20     1    1
    14     1     2   ar
    15     2     3   ar
    16     3     6    1
    17     6     7   ar
    18     7     8   ar
    19     8     9   ar
    20     9    10    1
    21     9    11   ar
    22    11    13    1
    23    13    14    1
    24    13    15    1
    25    13    16    1
    26    11    12   ar
    27     3     4   ar
    28     4     5   ar
    29     5    34    1
    30    34    35    1
    31    35    36    1
    32    36    37    1
    33    36    38    1
    34    20    21    1
    35    21    22    1
    36    29    23   ar
    37    22    17    1
    38     5     1   ar
    39    12     6   ar
    40    25    30    1
    41    25    31    1
@<TRIPOS>MOLECULE
*****
 38 41 0 0 0
SMALL
GASTEIGER

@<TRIPOS>ATOM
      1 C         141.4083  141.1265  163.1704 C.ar    1  UNL1        0.1200
      2 N         142.2301  141.3963  164.3959 N.ar    1  UNL1       -0.2309
      3 C         141.2953  141.7692  165.5081 C.ar    1  UNL1        0.0997
      4 C         139.8956  141.7299  164.9700 C.ar    1  UNL1        0.0961
      5 N         139.9655  141.3328  163.5252 N.ar    1  UNL1       -0.3123
      6 C         141.6906  142.1197  166.9120 C.ar    1  UNL1        0.0193
      7 C         143.1312  142.0520  167.3246 C.ar    1  UNL1        0.0038
      8 C         143.5266  142.4025  168.7283 C.ar    1  UNL1        0.0296
      9 C         142.4814  142.8209  169.7197 C.ar    1  UNL1        0.1440
     10 F         142.8767  143.1715  171.1235 F       1  UNL1       -0.2042
     11 C         141.0408  142.8887  169.3070 C.ar    1  UNL1        0.0988
     12 C         140.6455  142.5381  167.9032 C.ar    1  UNL1        0.0077
     13 C         139.9957  143.3071  170.2983 C.3     1  UNL1        0.4207
     14 F         138.9505  143.7255  171.2895 F       1  UNL1       -0.1658
     15 F         139.6244  141.8698  170.5135 F       1  UNL1       -0.1658
     16 F         140.3669  144.7444  170.0830 F       1  UNL1       -0.1658
     17 N         142.9929  139.9120  159.1376 N.pl3   1  UNL1       -0.2931
     18 C         143.6055  139.3477  160.3851 C.3     1  UNL1        0.0926
     19 C         143.0773  139.7525  161.7294 C.3     1  UNL1        0.0290
     20 C         141.9365  140.7217  161.8262 C.3     1  UNL1        0.0603
     21 C         141.3239  141.2860  160.5786 C.3     1  UNL1        0.0290
     22 C         141.8522  140.8811  159.2343 C.3     1  UNL1        0.0926
     23 C         144.4557  140.4151  157.0502 C.ar    1  UNL1        0.0628
     24 C         144.9839  140.0102  155.7059 C.ar    1  UNL1        0.1298
     25 N         145.9184  140.9182  154.9627 N.pl3   1  UNL1       -0.3425
     26 N         144.5776  138.6973  155.1048 N.ar    1  UNL1       -0.2094
     27 C         143.6432  137.7893  155.8480 C.ar    1  UNL1        0.2012
     28 N         143.1149  138.1942  157.1922 N.ar    1  UNL1       -0.2089
     29 C         143.5212  139.5071  157.7933 C.ar    1  UNL1        0.1361
     30 H         146.1851  141.7798  155.3572 H       1  UNL1        0.1437
     31 H         146.2651  140.6524  154.0804 H       1  UNL1        0.1437
     32 C         144.0551  142.9616  157.3737 C.2     1  UNL1        0.0002
     33 C         144.8620  141.7279  157.6513 C.2     1  UNL1        0.0056
     34 C         138.7976  141.1703  162.5981 C.3     1  UNL1        0.1245
     35 C         138.0753  139.8578  162.5244 C.3     1  UNL1        0.0970
     36 N         138.8392  138.5731  162.6505 N.3     1  UNL1       -0.2687
     37 C         139.5292  137.9902  161.4530 C.3     1  UNL1        0.0897
     38 C         138.9132  137.8714  163.9742 C.3     1  UNL1        0.0897
@<TRIPOS>BOND
     1    32    33    2
     2    33    23    1
     3    23    24   ar
     4    24    25    1
     5    24    26   ar
     6    26    27   ar
     7    27    28   ar
     8    28    29   ar
     9    29    17    1
    10    17    18    1
    11    18    19    1
    12    19    20    1
    13    20     1    1
    14     1     2   ar
    15     2     3   ar
    16     3     6    1
    17     6     7   ar
    18     7     8   ar
    19     8     9   ar
    20     9    10    1
    21     9    11   ar
    22    11    13    1
    23    13    14    1
    24    13    15    1
    25    13    16    1
    26    11    12   ar
    27     3     4   ar
    28     4     5   ar
    29     5    34    1
    30    34    35    1
    31    35    36    1
    32    36    37    1
    33    36    38    1
    34    20    21    1
    35    21    22    1
    36    29    23   ar
    37    22    17    1
    38     5     1   ar
    39    12     6   ar
    40    25    30    1
    41    25    31    1
@<TRIPOS>MOLECULE
*****
 38 41 0 0 0
SMALL
GASTEIGER

@<TRIPOS>ATOM
      1 C         142.1529  140.7010  163.0978 C.ar    1  UNL1        0.1200
      2 N         142.5056  140.0668  164.4106 N.ar    1  UNL1       -0.2309
      3 C         142.2088  141.0565  165.4980 C.ar    1  UNL1        0.0997
      4 C         141.6727  142.3024  164.8573 C.ar    1  UNL1        0.0961
      5 N         141.6382  142.0826  163.3739 N.ar    1  UNL1       -0.3123
      6 C         142.4124  140.8385  166.9681 C.ar    1  UNL1        0.0193
      7 C         142.2559  139.4655  167.5515 C.ar    1  UNL1        0.0038
      8 C         142.4595  139.2475  169.0215 C.ar    1  UNL1        0.0296
      9 C         142.8196  140.4027  169.9082 C.ar    1  UNL1        0.1440
     10 F         143.0232  140.1848  171.3782 F       1  UNL1       -0.2042
     11 C         142.9761  141.7757  169.3248 C.ar    1  UNL1        0.0988
     12 C         142.7725  141.9936  167.8547 C.ar    1  UNL1        0.0077
     13 C         143.3362  142.9307  170.2114 C.3     1  UNL1        0.4207
     14 F         143.6963  144.0858  171.0981 F       1  UNL1       -0.1658
     15 F         141.8854  143.2937  170.3278 F       1  UNL1       -0.1658
     16 F         144.7869  142.5677  170.0951 F       1  UNL1       -0.1658
     17 N         142.5665  138.7936  159.0431 N.pl3   1  UNL1       -0.2931
     18 C         143.7652  139.3953  159.7147 C.3     1  UNL1        0.0926
     19 C         143.6274  140.0311  161.0662 C.3     1  UNL1        0.0290
     20 C         142.2908  140.0652  161.7463 C.3     1  UNL1        0.0603
     21 C         141.0920  139.4635  161.0747 C.3     1  UNL1        0.0290
     22 C         141.2299  138.8277  159.7230 C.3     1  UNL1        0.0926
     23 C         142.5158  138.9817  156.4523 C.ar    1  UNL1        0.0628
     24 C         142.6537  138.3459  155.1008 C.ar    1  UNL1        0.1298
     25 N         142.4651  139.1698  153.8615 N.pl3   1  UNL1       -0.3425
     26 N         142.9802  136.8862  154.9884 N.ar    1  UNL1       -0.2094
     27 C         143.1688  136.0623  156.2276 C.ar    1  UNL1        0.2012
     28 N         143.0309  136.6981  157.5791 N.ar    1  UNL1       -0.2089
     29 C         142.7044  138.1578  157.6915 C.ar    1  UNL1        0.1361
     30 H         142.2507  140.1278  153.9352 H       1  UNL1        0.1437
     31 H         142.5556  138.7524  152.9744 H       1  UNL1        0.1437
     32 C         140.7581  140.8896  156.5961 C.2     1  UNL1        0.0002
     33 C         142.1893  140.4414  156.5647 C.2     1  UNL1        0.0056
     34 C         141.1710  143.0710  162.3469 C.3     1  UNL1        0.1245
     35 C         142.0987  144.1463  161.8642 C.3     1  UNL1        0.0970
     36 N         143.4660  144.2830  162.4657 N.3     1  UNL1       -0.2687
     37 C         144.6079  143.4756  161.9234 C.3     1  UNL1        0.0897
     38 C         143.6913  145.2270  163.6094 C.3     1  UNL1        0.0897
@<TRIPOS>BOND
     1    32    33    2
     2    33    23    1
     3    23    24   ar
     4    24    25    1
     5    24    26   ar
     6    26    27   ar
     7    27    28   ar
     8    28    29   ar
     9    29    17    1
    10    17    18    1
    11    18    19    1
    12    19    20    1
    13    20     1    1
    14     1     2   ar
    15     2     3   ar
    16     3     6    1
    17     6     7   ar
    18     7     8   ar
    19     8     9   ar
    20     9    10    1
    21     9    11   ar
    22    11    13    1
    23    13    14    1
    24    13    15    1
    25    13    16    1
    26    11    12   ar
    27     3     4   ar
    28     4     5   ar
    29     5    34    1
    30    34    35    1
    31    35    36    1
    32    36    37    1
    33    36    38    1
    34    20    21    1
    35    21    22    1
    36    29    23   ar
    37    22    17    1
    38     5     1   ar
    39    12     6   ar
    40    25    30    1
    41    25    31    1
@<TRIPOS>MOLECULE
*****
 38 41 0 0 0
SMALL
GASTEIGER

@<TRIPOS>ATOM
      1 C         141.4782  140.6616  163.5589 C.ar    1  UNL1        0.1200
      2 N         141.2835  141.2446  164.9272 N.ar    1  UNL1       -0.2309
      3 C         141.8039  140.2577  165.9298 C.ar    1  UNL1        0.0997
      4 C         142.3203  139.0648  165.1811 C.ar    1  UNL1        0.0961
      5 N         142.1189  139.3145  163.7159 N.ar    1  UNL1       -0.3123
      6 C         141.8074  140.4330  167.4195 C.ar    1  UNL1        0.0193
      7 C         142.5510  139.4614  168.2873 C.ar    1  UNL1        0.0038
      8 C         142.5546  139.6365  169.7769 C.ar    1  UNL1        0.0296
      9 C         141.8144  140.7834  170.3990 C.ar    1  UNL1        0.1440
     10 F         141.8179  140.9587  171.8887 F       1  UNL1       -0.2042
     11 C         141.0707  141.7550  169.5313 C.ar    1  UNL1        0.0988
     12 C         141.0672  141.5798  168.0415 C.ar    1  UNL1        0.0077
     13 C         140.3306  142.9019  170.1533 C.3     1  UNL1        0.4207
     14 F         139.5904  144.0487  170.7753 F       1  UNL1       -0.1658
     15 F         141.5345  143.7778  169.9708 F       1  UNL1       -0.1658
     16 F         139.1267  142.0259  170.3357 F       1  UNL1       -0.1658
     17 N         140.3397  142.6119  159.6665 N.pl3   1  UNL1       -0.2931
     18 C         139.2945  142.3576  160.7119 C.3     1  UNL1        0.0926
     19 C         139.6740  141.7076  162.0094 C.3     1  UNL1        0.0290
     20 C         141.0987  141.3117  162.2615 C.3     1  UNL1        0.0603
     21 C         142.1439  141.5659  161.2160 C.3     1  UNL1        0.0290
     22 C         141.7644  142.2160  159.9185 C.3     1  UNL1        0.0926
     23 C         140.2491  144.7169  158.1465 C.ar    1  UNL1        0.0628
     24 C         139.8696  145.3669  156.8490 C.ar    1  UNL1        0.1298
     25 N         140.1584  146.8220  156.6264 N.pl3   1  UNL1       -0.3425
     26 N         139.2012  144.5620  155.7742 N.ar    1  UNL1       -0.2094
     27 C         138.9123  143.1070  155.9967 C.ar    1  UNL1        0.2012
     28 N         139.2918  142.4570  157.2942 N.ar    1  UNL1       -0.2089
     29 C         139.9602  143.2620  158.3690 C.ar    1  UNL1        0.1361
     30 H         140.5971  147.3503  157.3318 H       1  UNL1        0.1437
     31 H         139.9093  147.2486  155.7748 H       1  UNL1        0.1437
     32 C         140.1753  145.8518  160.4824 C.2     1  UNL1        0.0002
     33 C         140.9175  145.5219  159.2213 C.2     1  UNL1        0.0056
     34 C         142.4927  138.3809  162.6029 C.3     1  UNL1        0.1245
     35 C         141.4935  137.3864  162.0906 C.3     1  UNL1        0.0970
     36 N         140.0640  137.7945  161.8907 N.3     1  UNL1       -0.2687
     37 C         139.6104  138.3088  160.5566 C.3     1  UNL1        0.0897
     38 C         139.0880  137.6883  163.0248 C.3     1  UNL1        0.0897
@<TRIPOS>BOND
     1    32    33    2
     2    33    23    1
     3    23    24   ar
     4    24    25    1
     5    24    26   ar
     6    26    27   ar
     7    27    28   ar
     8    28    29   ar
     9    29    17    1
    10    17    18    1
    11    18    19    1
    12    19    20    1
    13    20     1    1
    14     1     2   ar
    15     2     3   ar
    16     3     6    1
    17     6     7   ar
    18     7     8   ar
    19     8     9   ar
    20     9    10    1
    21     9    11   ar
    22    11    13    1
    23    13    14    1
    24    13    15    1
    25    13    16    1
    26    11    12   ar
    27     3     4   ar
    28     4     5   ar
    29     5    34    1
    30    34    35    1
    31    35    36    1
    32    36    37    1
    33    36    38    1
    34    20    21    1
    35    21    22    1
    36    29    23   ar
    37    22    17    1
    38     5     1   ar
    39    12     6   ar
    40    25    30    1
    41    25    31    1
