@<TRIPOS>MOLECULE
*****
 32 36 0 0 0
SMALL
GASTEIGER

@<TRIPOS>ATOM
      1 C         143.2904  143.4162  162.8610 C.2     1  UNL1        0.1157
      2 N         143.4832  143.5826  161.3827 N.2     1  UNL1       -0.1790
      3 N         142.1302  143.7317  160.7527 N.pl3   1  UNL1       -0.2060
      4 C         141.7022  143.9254  159.3281 C.ar    1  UNL1        0.1052
      5 C         142.7313  143.9997  158.2394 C.ar    1  UNL1        0.0490
      6 C         142.3034  144.1934  156.8149 C.ar    1  UNL1        0.1416
      7 F         143.3325  144.2677  155.7260 F       1  UNL1       -0.2041
      8 C         140.8463  144.3129  156.4791 C.ar    1  UNL1        0.0328
      9 C         139.8172  144.2386  157.5678 C.ar    1  UNL1        0.0405
     10 C         140.2452  144.0449  158.9923 C.ar    1  UNL1        0.1537
     11 O         139.2161  143.9706  160.0812 O.3     1  UNL1       -0.4723
     12 C         139.6441  143.7769  161.5057 C.3     1  UNL1        0.2277
     13 C         141.1011  143.6574  161.8414 C.3     1  UNL1        0.1488
     14 C         141.8181  143.4624  163.1444 C.3     1  UNL1        0.0806
     15 C         140.4354  143.4681  163.7258 C.ar    1  UNL1       -0.0157
     16 C         139.9154  144.6964  164.4121 C.ar    1  UNL1       -0.0039
     17 C         138.5326  144.7021  164.9935 C.ar    1  UNL1       -0.0003
     18 C         137.6698  143.4796  164.8884 C.ar    1  UNL1       -0.0000
     19 C         138.1897  142.2514  164.2021 C.ar    1  UNL1       -0.0003
     20 C         139.5726  142.2456  163.6207 C.ar    1  UNL1       -0.0039
     21 C         145.2756  142.0350  163.8102 C.3     1  UNL1        0.0786
     22 C         144.3787  143.2354  163.8773 C.2     1  UNL1        0.1887
     23 O         144.5702  144.2550  164.9607 O.2     1  UNL1       -0.2900
     24 C         142.2461  143.2687  164.5690 C.3     1  UNL1        0.0130
     25 C         141.8557  142.0222  165.3065 C.3     1  UNL1        0.0181
     26 C         142.5825  141.6336  166.5598 C.3     1  UNL1        0.0723
     27 N         142.1914  142.2434  167.8733 N.3     1  UNL1       -0.2685
     28 C         143.1917  142.3293  168.9877 C.3     1  UNL1        0.1046
     29 C         142.8006  142.9390  170.3012 C.3     1  UNL1        0.1595
     30 O         141.4092  143.4628  170.5003 O.3     1  UNL1       -0.3508
     31 C         140.4089  143.3769  169.3859 C.3     1  UNL1        0.1595
     32 C         140.8000  142.7671  168.0724 C.3     1  UNL1        0.1046
@<TRIPOS>BOND
     1    21    22    1
     2    22    23    2
     3    22     1    1
     4     1     2    2
     5     2     3    1
     6     3     4    1
     7     4     5   ar
     8     5     6   ar
     9     6     7    1
    10     6     8   ar
    11     8     9   ar
    12     9    10   ar
    13    10    11    1
    14    11    12    1
    15    13    12    1
    16    13    14    1
    17    14    24    1
    18    24    25    1
    19    25    26    1
    20    26    27    1
    21    27    28    1
    22    28    29    1
    23    29    30    1
    24    30    31    1
    25    31    32    1
    26    14    15    1
    27    15    16   ar
    28    16    17   ar
    29    17    18   ar
    30    18    19   ar
    31    19    20   ar
    32    14     1    1
    33    32    27    1
    34    20    15   ar
    35    13     3    1
    36    10     4   ar
@<TRIPOS>MOLECULE
*****
 32 36 0 0 0
SMALL
GASTEIGER

@<TRIPOS>ATOM
      1 C         140.5680  138.7990  164.1655 C.2     1  UNL1        0.1157
      2 N         139.8313  138.9117  165.4673 N.2     1  UNL1       -0.1790
      3 N         140.5372  139.9300  166.3127 N.pl3   1  UNL1       -0.2060
      4 C         140.2634  140.4535  167.6914 C.ar    1  UNL1        0.1052
      5 C         139.0904  139.9369  168.4707 C.ar    1  UNL1        0.0490
      6 C         138.8167  140.4605  169.8494 C.ar    1  UNL1        0.1416
      7 F         137.6437  139.9438  170.6287 F       1  UNL1       -0.2041
      8 C         139.7159  141.5007  170.4489 C.ar    1  UNL1        0.0328
      9 C         140.8888  142.0173  169.6697 C.ar    1  UNL1        0.0405
     10 C         141.1626  141.4938  168.2909 C.ar    1  UNL1        0.1537
     11 O         142.3356  142.0104  167.5117 O.3     1  UNL1       -0.4723
     12 C         142.6093  141.4869  166.1329 C.3     1  UNL1        0.2277
     13 C         141.7101  140.4466  165.5334 C.3     1  UNL1        0.1488
     14 C         141.7292  139.7476  164.2064 C.3     1  UNL1        0.0806
     15 C         142.9476  140.5868  163.9591 C.ar    1  UNL1       -0.0157
     16 C         144.3141  139.9838  164.0967 C.ar    1  UNL1       -0.0039
     17 C         145.5327  140.8230  163.8493 C.ar    1  UNL1       -0.0003
     18 C         145.3845  142.2652  163.4644 C.ar    1  UNL1       -0.0000
     19 C         144.0180  142.8682  163.3268 C.ar    1  UNL1       -0.0003
     20 C         142.7995  142.0290  163.5741 C.ar    1  UNL1       -0.0039
     21 C         138.8656  138.0209  162.3637 C.3     1  UNL1        0.0786
     22 C         140.2069  137.8961  163.0234 C.2     1  UNL1        0.1887
     23 O         141.1872  136.8683  162.5409 O.2     1  UNL1       -0.2900
     24 C         142.0030  139.2241  162.8276 C.3     1  UNL1        0.0130
     25 C         142.1183  140.1751  161.6734 C.3     1  UNL1        0.0181
     26 C         140.9048  140.5202  160.8620 C.3     1  UNL1        0.0723
     27 N         140.1280  141.7666  161.1674 N.3     1  UNL1       -0.2685
     28 C         140.6414  143.1006  160.7123 C.3     1  UNL1        0.1046
     29 C         139.8647  144.3470  161.0176 C.3     1  UNL1        0.1595
     30 O         138.5746  144.2594  161.7779 O.3     1  UNL1       -0.3508
     31 C         138.0613  142.9255  162.2330 C.3     1  UNL1        0.1595
     32 C         138.8380  141.6791  161.9277 C.3     1  UNL1        0.1046
@<TRIPOS>BOND
     1    21    22    1
     2    22    23    2
     3    22     1    1
     4     1     2    2
     5     2     3    1
     6     3     4    1
     7     4     5   ar
     8     5     6   ar
     9     6     7    1
    10     6     8   ar
    11     8     9   ar
    12     9    10   ar
    13    10    11    1
    14    11    12    1
    15    13    12    1
    16    13    14    1
    17    14    24    1
    18    24    25    1
    19    25    26    1
    20    26    27    1
    21    27    28    1
    22    28    29    1
    23    29    30    1
    24    30    31    1
    25    31    32    1
    26    14    15    1
    27    15    16   ar
    28    16    17   ar
    29    17    18   ar
    30    18    19   ar
    31    19    20   ar
    32    14     1    1
    33    32    27    1
    34    20    15   ar
    35    13     3    1
    36    10     4   ar
@<TRIPOS>MOLECULE
*****
 32 36 0 0 0
SMALL
GASTEIGER

@<TRIPOS>ATOM
      1 C         139.2065  141.1205  164.4048 C.2     1  UNL1        0.1157
      2 N         139.1292  140.6801  165.8366 N.2     1  UNL1       -0.1790
      3 N         140.3698  141.1532  166.5346 N.pl3   1  UNL1       -0.2060
      4 C         140.8399  141.0113  167.9520 C.ar    1  UNL1        0.1052
      5 C         139.9960  140.2784  168.9523 C.ar    1  UNL1        0.0490
      6 C         140.4662  140.1366  170.3696 C.ar    1  UNL1        0.1416
      7 F         139.6223  139.4037  171.3700 F       1  UNL1       -0.2041
      8 C         141.7803  140.7276  170.7866 C.ar    1  UNL1        0.0328
      9 C         142.6242  141.4604  169.7862 C.ar    1  UNL1        0.0405
     10 C         142.1541  141.6023  168.3690 C.ar    1  UNL1        0.1537
     11 O         142.9980  142.3352  167.3685 O.3     1  UNL1       -0.4723
     12 C         142.5278  142.4770  165.9513 C.3     1  UNL1        0.2277
     13 C         141.2137  141.8860  165.5343 C.3     1  UNL1        0.1488
     14 C         140.4947  141.8658  164.2180 C.3     1  UNL1        0.0806
     15 C         141.6846  142.6408  163.7348 C.ar    1  UNL1       -0.0157
     16 C         142.7947  141.9372  163.0118 C.ar    1  UNL1       -0.0039
     17 C         143.9847  142.7122  162.5286 C.ar    1  UNL1       -0.0003
     18 C         144.0646  144.1907  162.7685 C.ar    1  UNL1       -0.0000
     19 C         142.9546  144.8943  163.4915 C.ar    1  UNL1       -0.0003
     20 C         141.7646  144.1194  163.9747 C.ar    1  UNL1       -0.0039
     21 C         138.2980  139.6569  162.4599 C.3     1  UNL1        0.0786
     22 C         138.1762  140.8612  163.3458 C.2     1  UNL1        0.1887
     23 O         137.0243  141.8062  163.1727 O.2     1  UNL1       -0.2900
     24 C         140.0245  142.0077  162.8006 C.3     1  UNL1        0.0130
     25 C         139.7399  143.3685  162.2375 C.3     1  UNL1        0.0181
     26 C         139.4597  143.5305  160.7729 C.3     1  UNL1        0.0723
     27 N         140.5490  143.9836  159.8464 N.3     1  UNL1       -0.2685
     28 C         141.7719  143.1363  159.6557 C.3     1  UNL1        0.1046
     29 C         142.8612  143.5893  158.7293 C.3     1  UNL1        0.1595
     30 O         142.7275  144.8897  157.9935 O.3     1  UNL1       -0.3508
     31 C         141.5045  145.7369  158.1842 C.3     1  UNL1        0.1595
     32 C         140.4152  145.2839  159.1107 C.3     1  UNL1        0.1046
@<TRIPOS>BOND
     1    21    22    1
     2    22    23    2
     3    22     1    1
     4     1     2    2
     5     2     3    1
     6     3     4    1
     7     4     5   ar
     8     5     6   ar
     9     6     7    1
    10     6     8   ar
    11     8     9   ar
    12     9    10   ar
    13    10    11    1
    14    11    12    1
    15    13    12    1
    16    13    14    1
    17    14    24    1
    18    24    25    1
    19    25    26    1
    20    26    27    1
    21    27    28    1
    22    28    29    1
    23    29    30    1
    24    30    31    1
    25    31    32    1
    26    14    15    1
    27    15    16   ar
    28    16    17   ar
    29    17    18   ar
    30    18    19   ar
    31    19    20   ar
    32    14     1    1
    33    32    27    1
    34    20    15   ar
    35    13     3    1
    36    10     4   ar
@<TRIPOS>MOLECULE
*****
 32 36 0 0 0
SMALL
GASTEIGER

@<TRIPOS>ATOM
      1 C         143.6378  141.7567  164.2684 C.2     1  UNL1        0.1157
      2 N         143.7646  142.2735  165.6708 N.2     1  UNL1       -0.1790
      3 N         142.7677  141.5471  166.5243 N.pl3   1  UNL1       -0.2060
      4 C         142.4404  141.6403  167.9853 C.ar    1  UNL1        0.1052
      5 C         143.1834  142.6060  168.8602 C.ar    1  UNL1        0.0490
      6 C         142.8561  142.6991  170.3210 C.ar    1  UNL1        0.1416
      7 F         143.5991  143.6648  171.1960 F       1  UNL1       -0.2041
      8 C         141.7859  141.8266  170.9070 C.ar    1  UNL1        0.0328
      9 C         141.0430  140.8609  170.0321 C.ar    1  UNL1        0.0405
     10 C         141.3702  140.7678  168.5713 C.ar    1  UNL1        0.1537
     11 O         140.6273  139.8021  167.6963 O.3     1  UNL1       -0.4723
     12 C         140.9545  139.7089  166.2354 C.3     1  UNL1        0.2277
     13 C         142.0247  140.5814  165.6494 C.3     1  UNL1        0.1488
     14 C         142.5625  140.7110  164.2552 C.3     1  UNL1        0.0806
     15 C         141.5556  139.6458  163.9365 C.ar    1  UNL1       -0.0157
     16 C         142.0029  138.2293  163.7279 C.ar    1  UNL1       -0.0039
     17 C         140.9960  137.1640  163.4092 C.ar    1  UNL1       -0.0003
     18 C         139.5419  137.5153  163.2992 C.ar    1  UNL1       -0.0000
     19 C         139.0946  138.9317  163.5079 C.ar    1  UNL1       -0.0003
     20 C         140.1015  139.9970  163.8265 C.ar    1  UNL1       -0.0039
     21 C         144.3448  143.6241  162.6061 C.3     1  UNL1        0.0786
     22 C         144.4446  142.2067  163.0866 C.2     1  UNL1        0.1887
     23 O         145.3514  141.2392  162.3853 O.2     1  UNL1       -0.2900
     24 C         142.8897  140.6178  162.7942 C.3     1  UNL1        0.0130
     25 C         141.8167  140.8390  161.7697 C.3     1  UNL1        0.0181
     26 C         141.4407  142.2340  161.3667 C.3     1  UNL1        0.0723
     27 N         140.3812  142.9747  162.1277 N.3     1  UNL1       -0.2685
     28 C         138.9355  142.7897  161.7733 C.3     1  UNL1        0.1046
     29 C         137.8760  143.5303  162.5342 C.3     1  UNL1        0.1595
     30 O         138.2623  144.4560  163.6496 O.3     1  UNL1       -0.3508
     31 C         139.7081  144.6410  164.0040 C.3     1  UNL1        0.1595
     32 C         140.7675  143.9003  163.2430 C.3     1  UNL1        0.1046
@<TRIPOS>BOND
     1    21    22    1
     2    22    23    2
     3    22     1    1
     4     1     2    2
     5     2     3    1
     6     3     4    1
     7     4     5   ar
     8     5     6   ar
     9     6     7    1
    10     6     8   ar
    11     8     9   ar
    12     9    10   ar
    13    10    11    1
    14    11    12    1
    15    13    12    1
    16    13    14    1
    17    14    24    1
    18    24    25    1
    19    25    26    1
    20    26    27    1
    21    27    28    1
    22    28    29    1
    23    29    30    1
    24    30    31    1
    25    31    32    1
    26    14    15    1
    27    15    16   ar
    28    16    17   ar
    29    17    18   ar
    30    18    19   ar
    31    19    20   ar
    32    14     1    1
    33    32    27    1
    34    20    15   ar
    35    13     3    1
    36    10     4   ar
@<TRIPOS>MOLECULE
*****
 32 36 0 0 0
SMALL
GASTEIGER

@<TRIPOS>ATOM
      1 C         139.5467  144.1919  163.2487 C.2     1  UNL1        0.1157
      2 N         139.3306  144.6872  161.8494 N.2     1  UNL1       -0.1790
      3 N         140.5772  144.4111  161.0623 N.pl3   1  UNL1       -0.2060
      4 C         140.9415  144.6801  159.6323 C.ar    1  UNL1        0.1052
      5 C         139.9549  145.3460  158.7195 C.ar    1  UNL1        0.0490
      6 C         140.3192  145.6149  157.2895 C.ar    1  UNL1        0.1416
      7 F         139.3325  146.2808  156.3767 F       1  UNL1       -0.2041
      8 C         141.6701  145.2180  156.7723 C.ar    1  UNL1        0.0328
      9 C         142.6567  144.5522  157.6850 C.ar    1  UNL1        0.0405
     10 C         142.2924  144.2832  159.1150 C.ar    1  UNL1        0.1537
     11 O         143.2791  143.6174  160.0279 O.3     1  UNL1       -0.4723
     12 C         142.9148  143.3484  161.4579 C.3     1  UNL1        0.2277
     13 C         141.5639  143.7453  161.9751 C.3     1  UNL1        0.1488
     14 C         140.9270  143.6098  163.3264 C.3     1  UNL1        0.0806
     15 C         142.2311  142.9715  163.7030 C.ar    1  UNL1       -0.0157
     16 C         143.2717  143.7667  164.4342 C.ar    1  UNL1       -0.0039
     17 C         144.5759  143.1284  164.8108 C.ar    1  UNL1       -0.0003
     18 C         144.8393  141.6948  164.4563 C.ar    1  UNL1       -0.0000
     19 C         143.7986  140.8996  163.7252 C.ar    1  UNL1       -0.0003
     20 C         142.4945  141.5379  163.3485 C.ar    1  UNL1       -0.0039
     21 C         137.3663  143.3528  164.3853 C.3     1  UNL1        0.0786
     22 C         138.5564  144.2657  164.3730 C.2     1  UNL1        0.1887
     23 O         138.7562  145.2526  165.4848 O.2     1  UNL1       -0.2900
     24 C         140.5627  143.3408  164.7564 C.3     1  UNL1        0.0130
     25 C         140.4446  141.9284  165.2474 C.3     1  UNL1        0.0181
     26 C         140.1158  141.6595  166.6860 C.3     1  UNL1        0.0723
     27 N         141.0314  142.1487  167.7688 N.3     1  UNL1       -0.2685
     28 C         140.4823  142.9566  168.9071 C.3     1  UNL1        0.1046
     29 C         141.3978  143.4458  169.9898 C.3     1  UNL1        0.1595
     30 O         142.8626  143.1271  169.9343 O.3     1  UNL1       -0.3508
     31 C         143.4117  142.3192  168.7960 C.3     1  UNL1        0.1595
     32 C         142.4961  141.8300  167.7132 C.3     1  UNL1        0.1046
@<TRIPOS>BOND
     1    21    22    1
     2    22    23    2
     3    22     1    1
     4     1     2    2
     5     2     3    1
     6     3     4    1
     7     4     5   ar
     8     5     6   ar
     9     6     7    1
    10     6     8   ar
    11     8     9   ar
    12     9    10   ar
    13    10    11    1
    14    11    12    1
    15    13    12    1
    16    13    14    1
    17    14    24    1
    18    24    25    1
    19    25    26    1
    20    26    27    1
    21    27    28    1
    22    28    29    1
    23    29    30    1
    24    30    31    1
    25    31    32    1
    26    14    15    1
    27    15    16   ar
    28    16    17   ar
    29    17    18   ar
    30    18    19   ar
    31    19    20   ar
    32    14     1    1
    33    32    27    1
    34    20    15   ar
    35    13     3    1
    36    10     4   ar
@<TRIPOS>MOLECULE
*****
 32 36 0 0 0
SMALL
GASTEIGER

@<TRIPOS>ATOM
      1 C         139.0675  142.4565  164.3710 C.2     1  UNL1        0.1157
      2 N         138.9545  141.8475  165.7371 N.2     1  UNL1       -0.1790
      3 N         140.3389  141.7026  166.2959 N.pl3   1  UNL1       -0.2060
      4 C         140.8426  141.1646  167.6025 C.ar    1  UNL1        0.1052
      5 C         139.8740  140.6451  168.6231 C.ar    1  UNL1        0.0490
      6 C         140.3778  140.1072  169.9296 C.ar    1  UNL1        0.1416
      7 F         139.4091  139.5877  170.9503 F       1  UNL1       -0.2041
      8 C         141.8502  140.0889  170.2154 C.ar    1  UNL1        0.0328
      9 C         142.8188  140.6084  169.1947 C.ar    1  UNL1        0.0405
     10 C         142.3151  141.1462  167.8883 C.ar    1  UNL1        0.1537
     11 O         143.2837  141.6658  166.8675 O.3     1  UNL1       -0.4723
     12 C         142.7800  142.2037  165.5611 C.3     1  UNL1        0.2277
     13 C         141.3075  142.2221  165.2753 C.3     1  UNL1        0.1488
     14 C         140.5218  142.6881  164.0856 C.3     1  UNL1        0.0806
     15 C         141.8707  143.0320  163.5270 C.ar    1  UNL1       -0.0157
     16 C         142.7421  141.9541  162.9537 C.ar    1  UNL1       -0.0039
     17 C         144.0912  142.2980  162.3951 C.ar    1  UNL1       -0.0003
     18 C         144.5687  143.7199  162.4098 C.ar    1  UNL1       -0.0000
     19 C         143.6973  144.7979  162.9831 C.ar    1  UNL1       -0.0003
     20 C         142.3483  144.4539  163.5417 C.ar    1  UNL1       -0.0039
     21 C         137.5899  144.2069  163.1449 C.3     1  UNL1        0.0786
     22 C         137.9265  142.7777  163.4517 C.2     1  UNL1        0.1887
     23 O         137.1221  141.6697  162.8392 O.2     1  UNL1       -0.2900
     24 C         140.0180  143.2260  162.7790 C.3     1  UNL1        0.0130
     25 C         140.5081  142.6405  161.4879 C.3     1  UNL1        0.0181
     26 C         139.8239  141.4418  160.9005 C.3     1  UNL1        0.0723
     27 N         140.2732  140.0615  161.2788 N.3     1  UNL1       -0.2685
     28 C         141.4394  139.4332  160.5751 C.3     1  UNL1        0.1046
     29 C         141.8886  138.0529  160.9532 C.3     1  UNL1        0.1595
     30 O         141.1716  137.3009  162.0352 O.3     1  UNL1       -0.3508
     31 C         140.0054  137.9292  162.7389 C.3     1  UNL1        0.1595
     32 C         139.5562  139.3096  162.3606 C.3     1  UNL1        0.1046
@<TRIPOS>BOND
     1    21    22    1
     2    22    23    2
     3    22     1    1
     4     1     2    2
     5     2     3    1
     6     3     4    1
     7     4     5   ar
     8     5     6   ar
     9     6     7    1
    10     6     8   ar
    11     8     9   ar
    12     9    10   ar
    13    10    11    1
    14    11    12    1
    15    13    12    1
    16    13    14    1
    17    14    24    1
    18    24    25    1
    19    25    26    1
    20    26    27    1
    21    27    28    1
    22    28    29    1
    23    29    30    1
    24    30    31    1
    25    31    32    1
    26    14    15    1
    27    15    16   ar
    28    16    17   ar
    29    17    18   ar
    30    18    19   ar
    31    19    20   ar
    32    14     1    1
    33    32    27    1
    34    20    15   ar
    35    13     3    1
    36    10     4   ar
@<TRIPOS>MOLECULE
*****
 32 36 0 0 0
SMALL
GASTEIGER

@<TRIPOS>ATOM
      1 C         143.6558  141.8103  164.2461 C.2     1  UNL1        0.1157
      2 N         143.7549  142.3049  165.6588 N.2     1  UNL1       -0.1790
      3 N         142.7420  141.5648  166.4811 N.pl3   1  UNL1       -0.2060
      4 C         142.3862  141.6349  167.9367 C.ar    1  UNL1        0.1052
      5 C         143.1113  142.5869  168.8410 C.ar    1  UNL1        0.0490
      6 C         142.7556  142.6569  170.2965 C.ar    1  UNL1        0.1416
      7 F         143.4806  143.6089  171.2009 F       1  UNL1       -0.2041
      8 C         141.6747  141.7748  170.8477 C.ar    1  UNL1        0.0328
      9 C         140.9496  140.8228  169.9433 C.ar    1  UNL1        0.0405
     10 C         141.3054  140.7528  168.4878 C.ar    1  UNL1        0.1537
     11 O         140.5803  139.8007  167.5834 O.3     1  UNL1       -0.4723
     12 C         140.9361  139.7308  166.1279 C.3     1  UNL1        0.2277
     13 C         142.0169  140.6128  165.5768 C.3     1  UNL1        0.1488
     14 C         142.5817  140.7645  164.1955 C.3     1  UNL1        0.0806
     15 C         141.5820  139.7041  163.8405 C.ar    1  UNL1       -0.0157
     16 C         140.1443  140.0718  163.6219 C.ar    1  UNL1       -0.0039
     17 C         139.1444  139.0114  163.2669 C.ar    1  UNL1       -0.0003
     18 C         139.5824  137.5832  163.1305 C.ar    1  UNL1       -0.0000
     19 C         141.0201  137.2155  163.3491 C.ar    1  UNL1       -0.0003
     20 C         142.0199  138.2759  163.7041 C.ar    1  UNL1       -0.0039
     21 C         144.3091  143.6695  162.5530 C.3     1  UNL1        0.0786
     22 C         144.4853  142.2792  163.0876 C.2     1  UNL1        0.1887
     23 O         145.4910  141.3576  162.4636 O.2     1  UNL1       -0.2900
     24 C         142.9375  140.6945  162.7399 C.3     1  UNL1        0.0130
     25 C         141.8682  140.8430  161.6985 C.3     1  UNL1        0.0181
     26 C         141.9899  141.9033  160.6445 C.3     1  UNL1        0.0723
     27 N         141.1984  143.1721  160.7620 N.3     1  UNL1       -0.2685
     28 C         140.4865  143.4961  162.0420 C.3     1  UNL1        0.1046
     29 C         139.6950  144.7648  162.1595 C.3     1  UNL1        0.1595
     30 O         139.6152  145.7095  160.9970 O.3     1  UNL1       -0.3508
     31 C         140.3270  145.3854  159.7171 C.3     1  UNL1        0.1595
     32 C         141.1186  144.1167  159.5996 C.3     1  UNL1        0.1046
@<TRIPOS>BOND
     1    21    22    1
     2    22    23    2
     3    22     1    1
     4     1     2    2
     5     2     3    1
     6     3     4    1
     7     4     5   ar
     8     5     6   ar
     9     6     7    1
    10     6     8   ar
    11     8     9   ar
    12     9    10   ar
    13    10    11    1
    14    11    12    1
    15    13    12    1
    16    13    14    1
    17    14    24    1
    18    24    25    1
    19    25    26    1
    20    26    27    1
    21    27    28    1
    22    28    29    1
    23    29    30    1
    24    30    31    1
    25    31    32    1
    26    14    15    1
    27    15    16   ar
    28    16    17   ar
    29    17    18   ar
    30    18    19   ar
    31    19    20   ar
    32    14     1    1
    33    32    27    1
    34    20    15   ar
    35    13     3    1
    36    10     4   ar
@<TRIPOS>MOLECULE
*****
 32 36 0 0 0
SMALL
GASTEIGER

@<TRIPOS>ATOM
      1 C         143.2208  140.5768  163.7355 C.2     1  UNL1        0.1157
      2 N         143.3445  139.9682  165.1009 N.2     1  UNL1       -0.1790
      3 N         142.2201  140.4909  165.9449 N.pl3   1  UNL1       -0.2060
      4 C         141.8359  140.2389  167.3729 C.ar    1  UNL1        0.1052
      5 C         142.6546  139.3074  168.2166 C.ar    1  UNL1        0.0490
      6 C         142.2704  139.0554  169.6445 C.ar    1  UNL1        0.1416
      7 F         143.0892  138.1239  170.4883 F       1  UNL1       -0.2041
      8 C         141.0675  139.7350  170.2286 C.ar    1  UNL1        0.0328
      9 C         140.2488  140.6665  169.3849 C.ar    1  UNL1        0.0405
     10 C         140.6330  140.9184  167.9570 C.ar    1  UNL1        0.1537
     11 O         139.8143  141.8500  167.1132 O.3     1  UNL1       -0.4723
     12 C         140.1985  142.1020  165.6853 C.3     1  UNL1        0.2277
     13 C         141.4014  141.4224  165.1012 C.3     1  UNL1        0.1488
     14 C         142.0198  141.4755  163.7356 C.3     1  UNL1        0.0806
     15 C         140.8992  142.4269  163.4373 C.ar    1  UNL1       -0.0157
     16 C         139.7056  141.9592  162.6585 C.ar    1  UNL1       -0.0039
     17 C         138.5849  142.9106  162.3601 C.ar    1  UNL1       -0.0003
     18 C         138.6579  144.3297  162.8405 C.ar    1  UNL1       -0.0000
     19 C         139.8515  144.7974  163.6193 C.ar    1  UNL1       -0.0003
     20 C         140.9722  143.8460  163.9177 C.ar    1  UNL1       -0.0039
     21 C         143.7864  139.2920  161.5492 C.3     1  UNL1        0.0786
     22 C         144.1371  140.3299  162.5738 C.2     1  UNL1        0.1887
     23 O         145.4042  141.1209  162.4367 O.2     1  UNL1       -0.2900
     24 C         142.4040  141.7275  162.3077 C.3     1  UNL1        0.0130
     25 C         142.8978  143.0814  161.8916 C.3     1  UNL1        0.0181
     26 C         143.2921  143.3303  160.4660 C.3     1  UNL1        0.0723
     27 N         142.3871  144.1158  159.5637 N.3     1  UNL1       -0.2685
     28 C         141.1708  144.7910  160.1246 C.3     1  UNL1        0.1046
     29 C         140.2659  145.5765  159.2224 C.3     1  UNL1        0.1595
     30 O         140.5772  145.6869  157.7592 O.3     1  UNL1       -0.3508
     31 C         141.7935  145.0117  157.1982 C.3     1  UNL1        0.1595
     32 C         142.6985  144.2261  158.1005 C.3     1  UNL1        0.1046
@<TRIPOS>BOND
     1    21    22    1
     2    22    23    2
     3    22     1    1
     4     1     2    2
     5     2     3    1
     6     3     4    1
     7     4     5   ar
     8     5     6   ar
     9     6     7    1
    10     6     8   ar
    11     8     9   ar
    12     9    10   ar
    13    10    11    1
    14    11    12    1
    15    13    12    1
    16    13    14    1
    17    14    24    1
    18    24    25    1
    19    25    26    1
    20    26    27    1
    21    27    28    1
    22    28    29    1
    23    29    30    1
    24    30    31    1
    25    31    32    1
    26    14    15    1
    27    15    16   ar
    28    16    17   ar
    29    17    18   ar
    30    18    19   ar
    31    19    20   ar
    32    14     1    1
    33    32    27    1
    34    20    15   ar
    35    13     3    1
    36    10     4   ar
@<TRIPOS>MOLECULE
*****
 32 36 0 0 0
SMALL
GASTEIGER

@<TRIPOS>ATOM
      1 C         143.6870  139.7057  162.9921 C.2     1  UNL1        0.1157
      2 N         143.7818  139.3934  161.5280 N.2     1  UNL1       -0.1790
      3 N         142.3934  139.1497  161.0153 N.pl3   1  UNL1       -0.2060
      4 C         141.8737  138.8014  159.6519 C.ar    1  UNL1        0.1052
      5 C         142.8265  138.6398  158.5048 C.ar    1  UNL1        0.0490
      6 C         142.3068  138.2916  157.1415 C.ar    1  UNL1        0.1416
      7 F         143.2597  138.1300  155.9943 F       1  UNL1       -0.2041
      8 C         140.8343  138.1050  156.9253 C.ar    1  UNL1        0.0328
      9 C         139.8814  138.2666  158.0725 C.ar    1  UNL1        0.0405
     10 C         140.4011  138.6148  159.4357 C.ar    1  UNL1        0.1537
     11 O         139.4483  138.7764  160.5830 O.3     1  UNL1       -0.4723
     12 C         139.9680  139.1246  161.9462 C.3     1  UNL1        0.2277
     13 C         141.4406  139.3113  162.1624 C.3     1  UNL1        0.1488
     14 C         142.2401  139.6549  163.3841 C.3     1  UNL1        0.0806
     15 C         140.9018  139.6769  164.0612 C.ar    1  UNL1       -0.0157
     16 C         140.0136  140.8783  163.9280 C.ar    1  UNL1       -0.0039
     17 C         138.6752  140.9004  164.6051 C.ar    1  UNL1       -0.0003
     18 C         138.2251  139.7211  165.4155 C.ar    1  UNL1       -0.0000
     19 C         139.1134  138.5197  165.5487 C.ar    1  UNL1       -0.0003
     20 C         140.4517  138.4976  164.8716 C.ar    1  UNL1       -0.0039
     21 C         145.5760  141.3127  163.7663 C.3     1  UNL1        0.0786
     22 C         144.8373  140.0145  163.9040 C.2     1  UNL1        0.1887
     23 O         145.2489  139.0251  164.9536 O.2     1  UNL1       -0.2900
     24 C         142.7598  140.0032  164.7475 C.3     1  UNL1        0.0130
     25 C         142.4439  141.3391  165.3519 C.3     1  UNL1        0.0181
     26 C         142.7560  141.6020  166.7953 C.3     1  UNL1        0.0723
     27 N         141.9506  140.9346  167.8704 N.3     1  UNL1       -0.2685
     28 C         142.6322  140.0768  168.8949 C.3     1  UNL1        0.1046
     29 C         141.8269  139.4094  169.9700 C.3     1  UNL1        0.1595
     30 O         140.3398  139.5998  170.0207 O.3     1  UNL1       -0.3508
     31 C         139.6582  140.4576  168.9963 C.3     1  UNL1        0.1595
     32 C         140.4636  141.1250  167.9211 C.3     1  UNL1        0.1046
@<TRIPOS>BOND
     1    21    22    1
     2    22    23    2
     3    22     1    1
     4     1     2    2
     5     2     3    1
     6     3     4    1
     7     4     5   ar
     8     5     6   ar
     9     6     7    1
    10     6     8   ar
    11     8     9   ar
    12     9    10   ar
    13    10    11    1
    14    11    12    1
    15    13    12    1
    16    13    14    1
    17    14    24    1
    18    24    25    1
    19    25    26    1
    20    26    27    1
    21    27    28    1
    22    28    29    1
    23    29    30    1
    24    30    31    1
    25    31    32    1
    26    14    15    1
    27    15    16   ar
    28    16    17   ar
    29    17    18   ar
    30    18    19   ar
    31    19    20   ar
    32    14     1    1
    33    32    27    1
    34    20    15   ar
    35    13     3    1
    36    10     4   ar
