@<TRIPOS>MOLECULE
*****
 41 46 0 0 0
SMALL
GASTEIGER

@<TRIPOS>ATOM
      1 C         138.4279  140.2920  162.2277 C.ar    1  UNL1       -0.0061
      2 C         138.1170  141.3079  163.2867 C.ar    1  UNL1       -0.0028
      3 C         138.0557  140.8947  164.7274 C.ar    1  UNL1        0.0030
      4 C         138.3052  139.4657  165.1091 C.ar    1  UNL1        0.0420
      5 C         138.6160  138.4498  164.0501 C.ar    1  UNL1        0.0030
      6 C         138.6774  138.8630  162.6094 C.ar    1  UNL1       -0.0028
      7 C         138.2439  139.0525  166.5497 C.2     1  UNL1        0.2294
      8 O         137.1595  138.1288  167.0195 O.2     1  UNL1       -0.2833
      9 C         139.2670  139.5631  167.5206 C.ar    1  UNL1        0.1833
     10 N         139.0358  139.8530  168.9740 N.ar    1  UNL1       -0.2238
     11 C         140.3268  140.3425  169.5602 C.ar    1  UNL1        0.0988
     12 C         140.6983  140.7783  170.9466 C.ar    1  UNL1        0.0206
     13 C         142.0989  141.2267  171.2418 C.ar    1  UNL1        0.0016
     14 C         143.1281  141.2393  170.1506 C.ar    1  UNL1        0.0016
     15 C         142.7566  140.8034  168.7643 C.ar    1  UNL1        0.0188
     16 C         141.3560  140.3550  168.4691 C.ar    1  UNL1        0.0789
     17 N         140.7010  139.8733  167.2086 N.ar    1  UNL1       -0.3106
     18 C         141.3637  139.7275  165.8708 C.3     1  UNL1        0.0920
     19 C         141.5588  140.9297  164.9954 C.3     1  UNL1        0.0547
     20 C         142.2215  140.7839  163.6576 C.3     1  UNL1        0.1441
     21 O         142.6891  139.4357  163.1953 O.3     1  UNL1       -0.3536
     22 C         142.4940  138.2334  164.0707 C.3     1  UNL1        0.1441
     23 C         141.8313  138.3792  165.4084 C.3     1  UNL1        0.0547
     24 C         138.4892  140.7052  160.7870 C.3     1  UNL1        0.0991
     25 C         141.4951  138.8070  158.0281 C.3     1  UNL1        0.0251
     26 C         141.9584  139.6896  159.1490 C.3     1  UNL1        0.0217
     27 C         140.9565  140.3223  160.0687 C.3     1  UNL1        0.0727
     28 N         139.4911  140.0725  159.8674 N.3     1  UNL1       -0.2689
     29 C         139.0278  139.1899  158.7465 C.3     1  UNL1        0.0727
     30 C         140.0298  138.5572  157.8268 C.3     1  UNL1        0.0217
     31 C         143.7223  136.0588  156.2289 C.ar    1  UNL1        0.0500
     32 C         144.5009  136.9089  155.2691 C.ar    1  UNL1        0.0147
     33 C         144.2776  138.3916  155.2290 C.ar    1  UNL1        0.0009
     34 C         143.2757  139.0243  156.1487 C.ar    1  UNL1       -0.0042
     35 C         142.4970  138.1743  157.1084 C.ar    1  UNL1       -0.0212
     36 C         142.7203  136.6915  157.1486 C.ar    1  UNL1        0.0104
     37 C         143.5028  132.2069  155.2989 C.3     1  UNL1        0.0949
     38 C         143.2795  133.6897  155.2587 C.2     1  UNL1        0.2266
     39 O         142.3901  134.2860  154.2084 O.2     1  UNL1       -0.2748
     40 N         143.9456  134.5761  156.2690 N.am    1  UNL1       -0.2839
     41 H         144.5293  134.1847  156.9584 H       1  UNL1        0.1549
@<TRIPOS>BOND
     1    37    38    1
     2    38    39    2
     3    38    40   am
     4    40    31    1
     5    31    32   ar
     6    32    33   ar
     7    33    34   ar
     8    34    35   ar
     9    35    25    1
    10    25    26    1
    11    26    27    1
    12    27    28    1
    13    28    24    1
    14    24     1    1
    15     1     2   ar
    16     2     3   ar
    17     3     4   ar
    18     4     7    1
    19     7     8    2
    20     7     9    1
    21     9    10   ar
    22    10    11   ar
    23    11    12   ar
    24    12    13   ar
    25    13    14   ar
    26    14    15   ar
    27    15    16   ar
    28    16    17   ar
    29    17    18    1
    30    18    19    1
    31    19    20    1
    32    20    21    1
    33    21    22    1
    34    22    23    1
    35     4     5   ar
    36     5     6   ar
    37    28    29    1
    38    29    30    1
    39    35    36   ar
    40    36    31   ar
    41    30    25    1
    42     6     1   ar
    43    17     9   ar
    44    23    18    1
    45    16    11   ar
    46    40    41    1
@<TRIPOS>MOLECULE
*****
 41 46 0 0 0
SMALL
GASTEIGER

@<TRIPOS>ATOM
      1 C         143.9043  141.7890  162.0576 C.ar    1  UNL1       -0.0061
      2 C         143.1488  140.5351  161.7306 C.ar    1  UNL1       -0.0028
      3 C         142.6650  139.6416  162.8341 C.ar    1  UNL1        0.0030
      4 C         142.9367  140.0021  164.2646 C.ar    1  UNL1        0.0420
      5 C         143.6922  141.2560  164.5916 C.ar    1  UNL1        0.0030
      6 C         144.1760  142.1495  163.4881 C.ar    1  UNL1       -0.0028
      7 C         142.4528  139.1087  165.3680 C.2     1  UNL1        0.2294
      8 O         142.2605  137.6426  165.1161 O.2     1  UNL1       -0.2833
      9 C         142.1614  139.6814  166.7234 C.ar    1  UNL1        0.1833
     10 N         142.9261  139.3996  167.9827 N.ar    1  UNL1       -0.2238
     11 C         142.2914  140.1805  169.0951 C.ar    1  UNL1        0.0988
     12 C         142.6175  140.2942  170.5547 C.ar    1  UNL1        0.0206
     13 C         141.7865  141.1724  171.4426 C.ar    1  UNL1        0.0016
     14 C         140.6294  141.9367  170.8708 C.ar    1  UNL1        0.0016
     15 C         140.3033  141.8229  169.4112 C.ar    1  UNL1        0.0188
     16 C         141.1343  140.9448  168.5233 C.ar    1  UNL1        0.0789
     17 N         141.0540  140.6364  167.0575 N.ar    1  UNL1       -0.3106
     18 C         140.0436  141.1863  166.0949 C.3     1  UNL1        0.0920
     19 C         140.0619  142.6434  165.7395 C.3     1  UNL1        0.0547
     20 C         139.0515  143.1934  164.7768 C.3     1  UNL1        0.1441
     21 O         138.0228  142.2863  164.1696 O.3     1  UNL1       -0.3536
     22 C         138.0044  140.8291  164.5251 C.3     1  UNL1        0.1441
     23 C         139.0148  140.2791  165.4877 C.3     1  UNL1        0.0547
     24 C         144.3882  142.6825  160.9541 C.3     1  UNL1        0.0991
     25 C         141.4478  144.4735  158.0565 C.3     1  UNL1        0.0251
     26 C         142.6451  143.7281  157.5456 C.3     1  UNL1        0.0217
     27 C         143.6252  143.1311  158.5114 C.3     1  UNL1        0.0727
     28 N         143.4081  143.2795  159.9882 N.3     1  UNL1       -0.2689
     29 C         142.2108  144.0249  160.4991 C.3     1  UNL1        0.0727
     30 C         141.2307  144.6219  159.5332 C.3     1  UNL1        0.0217
     31 C         139.0423  147.0903  156.2912 C.ar    1  UNL1        0.0500
     32 C         138.5074  146.2645  155.1589 C.ar    1  UNL1        0.0147
     33 C         138.9526  144.8418  154.9925 C.ar    1  UNL1        0.0009
     34 C         139.9327  144.2448  155.9584 C.ar    1  UNL1       -0.0042
     35 C         140.4676  145.0705  157.0906 C.ar    1  UNL1       -0.0212
     36 C         140.0224  146.4933  157.2571 C.ar    1  UNL1        0.0104
     37 C         138.5378  150.9664  155.6048 C.3     1  UNL1        0.0949
     38 C         138.9830  149.5437  155.4384 C.2     1  UNL1        0.2266
     39 O         139.8142  149.1517  154.2529 O.2     1  UNL1       -0.2748
     40 N         138.5971  148.5129  156.4576 N.am    1  UNL1       -0.2839
     41 H         138.0516  148.7702  157.2357 H       1  UNL1        0.1549
@<TRIPOS>BOND
     1    37    38    1
     2    38    39    2
     3    38    40   am
     4    40    31    1
     5    31    32   ar
     6    32    33   ar
     7    33    34   ar
     8    34    35   ar
     9    35    25    1
    10    25    26    1
    11    26    27    1
    12    27    28    1
    13    28    24    1
    14    24     1    1
    15     1     2   ar
    16     2     3   ar
    17     3     4   ar
    18     4     7    1
    19     7     8    2
    20     7     9    1
    21     9    10   ar
    22    10    11   ar
    23    11    12   ar
    24    12    13   ar
    25    13    14   ar
    26    14    15   ar
    27    15    16   ar
    28    16    17   ar
    29    17    18    1
    30    18    19    1
    31    19    20    1
    32    20    21    1
    33    21    22    1
    34    22    23    1
    35     4     5   ar
    36     5     6   ar
    37    28    29    1
    38    29    30    1
    39    35    36   ar
    40    36    31   ar
    41    30    25    1
    42     6     1   ar
    43    17     9   ar
    44    23    18    1
    45    16    11   ar
    46    40    41    1
@<TRIPOS>MOLECULE
*****
 41 46 0 0 0
SMALL
GASTEIGER

@<TRIPOS>ATOM
      1 C         138.0639  140.3459  162.2990 C.ar    1  UNL1       -0.0061
      2 C         138.4425  138.9241  162.5904 C.ar    1  UNL1       -0.0028
      3 C         138.5703  138.4579  164.0104 C.ar    1  UNL1        0.0030
      4 C         138.3196  139.4137  165.1390 C.ar    1  UNL1        0.0420
      5 C         137.9410  140.8356  164.8475 C.ar    1  UNL1        0.0030
      6 C         137.8132  141.3017  163.4275 C.ar    1  UNL1       -0.0028
      7 C         138.4474  138.9476  166.5590 C.2     1  UNL1        0.2294
      8 O         137.6071  137.8073  167.0525 O.2     1  UNL1       -0.2833
      9 C         139.4155  139.6218  167.4854 C.ar    1  UNL1        0.1833
     10 N         139.1652  139.9664  168.9237 N.ar    1  UNL1       -0.2238
     11 C         140.3988  140.6274  169.4634 C.ar    1  UNL1        0.0988
     12 C         140.7309  141.1793  170.8181 C.ar    1  UNL1        0.0206
     13 C         142.0755  141.7951  171.0680 C.ar    1  UNL1        0.0016
     14 C         143.0882  141.8590  169.9633 C.ar    1  UNL1        0.0016
     15 C         142.7562  141.3071  168.6086 C.ar    1  UNL1        0.0188
     16 C         141.4115  140.6913  168.3587 C.ar    1  UNL1        0.0789
     17 N         140.8037  140.0698  167.1362 N.ar    1  UNL1       -0.3106
     18 C         141.4677  139.9222  165.7993 C.3     1  UNL1        0.0920
     19 C         141.5922  141.1076  164.8887 C.3     1  UNL1        0.0547
     20 C         142.2562  140.9600  163.5518 C.3     1  UNL1        0.1441
     21 O         142.7958  139.6270  163.1255 O.3     1  UNL1       -0.3536
     22 C         142.6714  138.4415  164.0361 C.3     1  UNL1        0.1441
     23 C         142.0074  138.5891  165.3730 C.3     1  UNL1        0.0547
     24 C         137.9361  140.8121  160.8789 C.3     1  UNL1        0.0991
     25 C         141.1192  139.7699  157.8736 C.3     1  UNL1        0.0251
     26 C         139.6723  139.7216  157.4809 C.3     1  UNL1        0.0217
     27 C         138.6112  140.0690  158.4826 C.3     1  UNL1        0.0727
     28 N         138.9971  140.4647  159.8772 N.3     1  UNL1       -0.2689
     29 C         140.4440  140.5130  160.2698 C.3     1  UNL1        0.0727
     30 C         141.5050  140.1656  159.2681 C.3     1  UNL1        0.0217
     31 C         144.6298  139.6199  156.0289 C.ar    1  UNL1        0.0500
     32 C         144.3022  138.7278  154.8683 C.ar    1  UNL1        0.0147
     33 C         142.9137  138.1831  154.7095 C.ar    1  UNL1        0.0009
     34 C         141.8527  138.5305  155.7113 C.ar    1  UNL1       -0.0042
     35 C         142.1802  139.4225  156.8718 C.ar    1  UNL1       -0.0212
     36 C         143.5688  139.9673  157.0307 C.ar    1  UNL1        0.0104
     37 C         147.7872  141.9992  155.6820 C.3     1  UNL1        0.0949
     38 C         146.3985  141.4545  155.5232 C.2     1  UNL1        0.2266
     39 O         145.3902  142.1998  154.6999 O.2     1  UNL1       -0.2748
     40 N         146.0184  140.1646  156.1877 N.am    1  UNL1       -0.2839
     41 H         146.6802  139.6754  156.7280 H       1  UNL1        0.1549
@<TRIPOS>BOND
     1    37    38    1
     2    38    39    2
     3    38    40   am
     4    40    31    1
     5    31    32   ar
     6    32    33   ar
     7    33    34   ar
     8    34    35   ar
     9    35    25    1
    10    25    26    1
    11    26    27    1
    12    27    28    1
    13    28    24    1
    14    24     1    1
    15     1     2   ar
    16     2     3   ar
    17     3     4   ar
    18     4     7    1
    19     7     8    2
    20     7     9    1
    21     9    10   ar
    22    10    11   ar
    23    11    12   ar
    24    12    13   ar
    25    13    14   ar
    26    14    15   ar
    27    15    16   ar
    28    16    17   ar
    29    17    18    1
    30    18    19    1
    31    19    20    1
    32    20    21    1
    33    21    22    1
    34    22    23    1
    35     4     5   ar
    36     5     6   ar
    37    28    29    1
    38    29    30    1
    39    35    36   ar
    40    36    31   ar
    41    30    25    1
    42     6     1   ar
    43    17     9   ar
    44    23    18    1
    45    16    11   ar
    46    40    41    1
@<TRIPOS>MOLECULE
*****
 41 46 0 0 0
SMALL
GASTEIGER

@<TRIPOS>ATOM
      1 C         142.3492  141.9018  159.1669 C.ar    1  UNL1       -0.0061
      2 C         140.9101  142.2059  158.8729 C.ar    1  UNL1       -0.0028
      3 C         140.0017  142.6699  159.9728 C.ar    1  UNL1        0.0030
      4 C         140.5325  142.8297  161.3666 C.ar    1  UNL1        0.0420
      5 C         141.9717  142.5255  161.6606 C.ar    1  UNL1        0.0030
      6 C         142.8800  142.0616  160.5607 C.ar    1  UNL1       -0.0028
      7 C         139.6242  143.2936  162.4665 C.2     1  UNL1        0.2294
      8 O         138.5568  144.3078  162.1800 O.2     1  UNL1       -0.2833
      9 C         139.7833  142.7433  163.8528 C.ar    1  UNL1        0.1833
     10 N         140.0744  143.5403  165.0897 N.ar    1  UNL1       -0.2238
     11 C         140.1502  142.5891  166.2470 C.ar    1  UNL1        0.0988
     12 C         140.4101  142.8050  167.7084 C.ar    1  UNL1        0.0206
     13 C         140.4257  141.6360  168.6482 C.ar    1  UNL1        0.0016
     14 C         140.1814  140.2510  168.1265 C.ar    1  UNL1        0.0016
     15 C         139.9215  140.0351  166.6651 C.ar    1  UNL1        0.0188
     16 C         139.9059  141.2041  165.7254 C.ar    1  UNL1        0.0789
     17 N         139.6791  141.2995  164.2457 N.ar    1  UNL1       -0.3106
     18 C         139.3976  140.1523  163.3211 C.3     1  UNL1        0.0920
     19 C         140.4905  139.1874  162.9687 C.3     1  UNL1        0.0547
     20 C         140.2090  138.0402  162.0442 C.3     1  UNL1        0.1441
     21 O         138.8344  137.8579  161.4720 O.3     1  UNL1       -0.3536
     22 C         137.7414  138.8228  161.8245 C.3     1  UNL1        0.1441
     23 C         138.0229  139.9700  162.7490 C.3     1  UNL1        0.0547
     24 C         143.2576  141.4379  158.0670 C.3     1  UNL1        0.0991
     25 C         142.9234  137.2344  156.4955 C.3     1  UNL1        0.0251
     26 C         143.3263  138.3491  155.5761 C.3     1  UNL1        0.0217
     27 C         143.4377  139.7502  156.0999 C.3     1  UNL1        0.0727
     28 N         143.1462  140.0367  157.5432 N.3     1  UNL1       -0.2689
     29 C         142.7433  138.9221  158.4626 C.3     1  UNL1        0.0727
     30 C         142.6319  137.5210  157.9387 C.3     1  UNL1        0.0217
     31 C         142.9025  133.2678  156.3718 C.ar    1  UNL1        0.0500
     32 C         142.5891  133.0310  154.9240 C.ar    1  UNL1        0.0147
     33 C         142.3872  134.1954  154.0002 C.ar    1  UNL1        0.0009
     34 C         142.4986  135.5965  154.5241 C.ar    1  UNL1       -0.0042
     35 C         142.8120  135.8333  155.9717 C.ar    1  UNL1       -0.0212
     36 C         143.0139  134.6689  156.8956 C.ar    1  UNL1        0.0104
     37 C         144.6068  130.1914  158.2106 C.3     1  UNL1        0.0949
     38 C         144.4049  131.3558  157.2867 C.2     1  UNL1        0.2266
     39 O         145.5033  131.7725  156.3541 O.2     1  UNL1       -0.2748
     40 N         143.1045  132.1034  157.2955 N.am    1  UNL1       -0.2839
     41 H         142.3836  131.8299  157.9077 H       1  UNL1        0.1549
@<TRIPOS>BOND
     1    37    38    1
     2    38    39    2
     3    38    40   am
     4    40    31    1
     5    31    32   ar
     6    32    33   ar
     7    33    34   ar
     8    34    35   ar
     9    35    25    1
    10    25    26    1
    11    26    27    1
    12    27    28    1
    13    28    24    1
    14    24     1    1
    15     1     2   ar
    16     2     3   ar
    17     3     4   ar
    18     4     7    1
    19     7     8    2
    20     7     9    1
    21     9    10   ar
    22    10    11   ar
    23    11    12   ar
    24    12    13   ar
    25    13    14   ar
    26    14    15   ar
    27    15    16   ar
    28    16    17   ar
    29    17    18    1
    30    18    19    1
    31    19    20    1
    32    20    21    1
    33    21    22    1
    34    22    23    1
    35     4     5   ar
    36     5     6   ar
    37    28    29    1
    38    29    30    1
    39    35    36   ar
    40    36    31   ar
    41    30    25    1
    42     6     1   ar
    43    17     9   ar
    44    23    18    1
    45    16    11   ar
    46    40    41    1
@<TRIPOS>MOLECULE
*****
 41 46 0 0 0
SMALL
GASTEIGER

@<TRIPOS>ATOM
      1 C         142.0685  137.9799  158.6072 C.ar    1  UNL1       -0.0061
      2 C         142.9953  137.7814  159.7697 C.ar    1  UNL1       -0.0028
      3 C         142.4998  137.9962  161.1692 C.ar    1  UNL1        0.0030
      4 C         141.0774  138.4095  161.4060 C.ar    1  UNL1        0.0420
      5 C         140.1506  138.6080  160.2434 C.ar    1  UNL1        0.0030
      6 C         140.6461  138.3932  158.8440 C.ar    1  UNL1       -0.0028
      7 C         140.5819  138.6242  162.8054 C.2     1  UNL1        0.2294
      8 O         140.5014  137.4685  163.7581 O.2     1  UNL1       -0.2833
      9 C         140.1669  139.9947  163.2520 C.ar    1  UNL1        0.1833
     10 N         138.7753  140.4194  163.6170 N.ar    1  UNL1       -0.2238
     11 C         138.8189  141.8684  164.0026 C.ar    1  UNL1        0.0988
     12 C         137.7503  142.8198  164.4527 C.ar    1  UNL1        0.0206
     13 C         138.1001  144.2421  164.7762 C.ar    1  UNL1        0.0016
     14 C         139.5187  144.7129  164.6496 C.ar    1  UNL1        0.0016
     15 C         140.5874  143.7615  164.1995 C.ar    1  UNL1        0.0188
     16 C         140.2375  142.3392  163.8760 C.ar    1  UNL1        0.0789
     17 N         141.0705  141.1812  163.4121 N.ar    1  UNL1       -0.3106
     18 C         142.5479  141.2055  163.1537 C.3     1  UNL1        0.0920
     19 C         143.4865  140.5191  164.1011 C.3     1  UNL1        0.0547
     20 C         144.9638  140.5434  163.8427 C.3     1  UNL1        0.1441
     21 O         145.5027  141.2542  162.6367 O.3     1  UNL1       -0.3536
     22 C         144.5641  141.9407  161.6892 C.3     1  UNL1        0.1441
     23 C         143.0868  141.9164  161.9476 C.3     1  UNL1        0.0547
     24 C         142.5640  137.7651  157.2077 C.3     1  UNL1        0.0991
     25 C         142.1527  133.7243  155.2706 C.3     1  UNL1        0.0251
     26 C         143.2804  133.9876  156.2241 C.3     1  UNL1        0.0217
     27 C         143.4175  135.3346  156.8699 C.3     1  UNL1        0.0727
     28 N         142.4269  136.4182  156.5620 N.3     1  UNL1       -0.2689
     29 C         141.2994  136.1548  155.6085 C.3     1  UNL1        0.0727
     30 C         141.1623  134.8079  154.9628 C.3     1  UNL1        0.0217
     31 C         140.7594  130.1162  154.3816 C.ar    1  UNL1        0.0500
     32 C         141.7415  129.6835  153.3335 C.ar    1  UNL1        0.0147
     33 C         142.8605  130.5977  152.9312 C.ar    1  UNL1        0.0009
     34 C         142.9976  131.9446  153.5769 C.ar    1  UNL1       -0.0042
     35 C         142.0156  132.3774  154.6249 C.ar    1  UNL1       -0.0212
     36 C         140.8965  131.4631  155.0273 C.ar    1  UNL1        0.0104
     37 C         138.7889  127.1353  156.1083 C.3     1  UNL1        0.0949
     38 C         139.9080  128.0495  155.7059 C.2     1  UNL1        0.2266
     39 O         141.2948  127.8113  156.2257 O.2     1  UNL1       -0.2748
     40 N         139.6404  129.2020  154.7839 N.am    1  UNL1       -0.2839
     41 H         138.7302  129.3584  154.4428 H       1  UNL1        0.1549
@<TRIPOS>BOND
     1    37    38    1
     2    38    39    2
     3    38    40   am
     4    40    31    1
     5    31    32   ar
     6    32    33   ar
     7    33    34   ar
     8    34    35   ar
     9    35    25    1
    10    25    26    1
    11    26    27    1
    12    27    28    1
    13    28    24    1
    14    24     1    1
    15     1     2   ar
    16     2     3   ar
    17     3     4   ar
    18     4     7    1
    19     7     8    2
    20     7     9    1
    21     9    10   ar
    22    10    11   ar
    23    11    12   ar
    24    12    13   ar
    25    13    14   ar
    26    14    15   ar
    27    15    16   ar
    28    16    17   ar
    29    17    18    1
    30    18    19    1
    31    19    20    1
    32    20    21    1
    33    21    22    1
    34    22    23    1
    35     4     5   ar
    36     5     6   ar
    37    28    29    1
    38    29    30    1
    39    35    36   ar
    40    36    31   ar
    41    30    25    1
    42     6     1   ar
    43    17     9   ar
    44    23    18    1
    45    16    11   ar
    46    40    41    1
@<TRIPOS>MOLECULE
*****
 41 46 0 0 0
SMALL
GASTEIGER

@<TRIPOS>ATOM
      1 C         141.8706  138.1706  158.6032 C.ar    1  UNL1       -0.0061
      2 C         142.5484  138.0002  159.9304 C.ar    1  UNL1       -0.0028
      3 C         141.7572  138.1278  161.1985 C.ar    1  UNL1        0.0030
      4 C         140.2883  138.4258  161.1392 C.ar    1  UNL1        0.0420
      5 C         139.6105  138.5962  159.8118 C.ar    1  UNL1        0.0030
      6 C         140.4017  138.4686  158.5439 C.ar    1  UNL1       -0.0028
      7 C         139.4971  138.5534  162.4071 C.2     1  UNL1        0.2294
      8 O         138.8787  137.3375  163.0308 O.2     1  UNL1       -0.2833
      9 C         139.3244  139.8970  163.0514 C.ar    1  UNL1        0.1833
     10 N         138.1441  140.8081  162.8877 N.ar    1  UNL1       -0.2238
     11 C         138.3919  142.0395  163.7076 C.ar    1  UNL1        0.0988
     12 C         137.5756  143.2781  163.9303 C.ar    1  UNL1        0.0206
     13 C         138.0927  144.3666  164.8234 C.ar    1  UNL1        0.0016
     14 C         139.4261  144.2165  165.4939 C.ar    1  UNL1        0.0016
     15 C         140.2424  142.9779  165.2712 C.ar    1  UNL1        0.0188
     16 C         139.7253  141.8895  164.3780 C.ar    1  UNL1        0.0789
     17 N         140.3016  140.5653  163.9725 N.ar    1  UNL1       -0.3106
     18 C         141.6231  140.0074  164.4110 C.3     1  UNL1        0.0920
     19 C         141.6728  138.9189  165.4418 C.3     1  UNL1        0.0547
     20 C         142.9944  138.3610  165.8804 C.3     1  UNL1        0.1441
     21 O         144.2662  138.8917  165.2881 O.3     1  UNL1       -0.3536
     22 C         144.2165  139.9802  164.2573 C.3     1  UNL1        0.1441
     23 C         142.8950  140.5381  163.8188 C.3     1  UNL1        0.0547
     24 C         142.6618  138.0430  157.3352 C.3     1  UNL1        0.0991
     25 C         143.0878  134.0304  155.3432 C.3     1  UNL1        0.0251
     26 C         143.3905  134.1780  156.8050 C.3     1  UNL1        0.0217
     27 C         143.2485  135.5155  157.4690 C.3     1  UNL1        0.0727
     28 N         142.8038  136.7054  156.6712 N.3     1  UNL1       -0.2689
     29 C         142.5011  136.5578  155.2095 C.3     1  UNL1        0.0727
     30 C         142.6431  135.2203  154.5455 C.3     1  UNL1        0.0217
     31 C         144.2924  130.3235  154.5964 C.ar    1  UNL1        0.0500
     32 C         143.5138  130.0178  153.3512 C.ar    1  UNL1        0.0147
     33 C         142.5932  131.0497  152.7701 C.ar    1  UNL1        0.0009
     34 C         142.4512  132.3872  153.4341 C.ar    1  UNL1       -0.0042
     35 C         143.2298  132.6929  154.6792 C.ar    1  UNL1       -0.0212
     36 C         144.1504  131.6610  155.2604 C.ar    1  UNL1        0.0104
     37 C         145.5856  127.1771  156.6405 C.3     1  UNL1        0.0949
     38 C         144.6649  128.2090  156.0594 C.2     1  UNL1        0.2266
     39 O         143.1963  128.1583  156.3601 O.2     1  UNL1       -0.2748
     40 N         145.2130  129.2916  155.1775 N.am    1  UNL1       -0.2839
     41 H         146.1769  129.3249  154.9802 H       1  UNL1        0.1549
@<TRIPOS>BOND
     1    37    38    1
     2    38    39    2
     3    38    40   am
     4    40    31    1
     5    31    32   ar
     6    32    33   ar
     7    33    34   ar
     8    34    35   ar
     9    35    25    1
    10    25    26    1
    11    26    27    1
    12    27    28    1
    13    28    24    1
    14    24     1    1
    15     1     2   ar
    16     2     3   ar
    17     3     4   ar
    18     4     7    1
    19     7     8    2
    20     7     9    1
    21     9    10   ar
    22    10    11   ar
    23    11    12   ar
    24    12    13   ar
    25    13    14   ar
    26    14    15   ar
    27    15    16   ar
    28    16    17   ar
    29    17    18    1
    30    18    19    1
    31    19    20    1
    32    20    21    1
    33    21    22    1
    34    22    23    1
    35     4     5   ar
    36     5     6   ar
    37    28    29    1
    38    29    30    1
    39    35    36   ar
    40    36    31   ar
    41    30    25    1
    42     6     1   ar
    43    17     9   ar
    44    23    18    1
    45    16    11   ar
    46    40    41    1
@<TRIPOS>MOLECULE
*****
 41 46 0 0 0
SMALL
GASTEIGER

@<TRIPOS>ATOM
      1 C         142.0674  139.4730  159.8938 C.ar    1  UNL1       -0.0061
      2 C         143.2678  140.3371  160.1436 C.ar    1  UNL1       -0.0028
      3 C         143.8775  140.3962  161.5129 C.ar    1  UNL1        0.0030
      4 C         143.2868  139.5912  162.6323 C.ar    1  UNL1        0.0420
      5 C         142.0863  138.7271  162.3824 C.ar    1  UNL1        0.0030
      6 C         141.4767  138.6680  161.0131 C.ar    1  UNL1       -0.0028
      7 C         143.8964  139.6503  164.0015 C.2     1  UNL1        0.2294
      8 O         145.3149  139.2097  164.2105 O.2     1  UNL1       -0.2833
      9 C         143.0876  140.1499  165.1617 C.ar    1  UNL1        0.1833
     10 N         142.7298  139.3662  166.3897 N.ar    1  UNL1       -0.2238
     11 C         141.9156  140.2529  167.2846 C.ar    1  UNL1        0.0988
     12 C         141.2879  140.0197  168.6268 C.ar    1  UNL1        0.0206
     13 C         140.5146  141.1182  169.2941 C.ar    1  UNL1        0.0016
     14 C         140.3691  142.4499  168.6192 C.ar    1  UNL1        0.0016
     15 C         140.9968  142.6831  167.2770 C.ar    1  UNL1        0.0188
     16 C         141.7701  141.5846  166.6097 C.ar    1  UNL1        0.0789
     17 N         142.4944  141.5209  165.2977 N.ar    1  UNL1       -0.3106
     18 C         142.6059  142.6330  164.2973 C.3     1  UNL1        0.0920
     19 C         141.5345  142.8236  163.2651 C.3     1  UNL1        0.0547
     20 C         141.6461  143.9357  162.2647 C.3     1  UNL1        0.1441
     21 O         142.8291  144.8573  162.2966 O.3     1  UNL1       -0.3536
     22 C         143.9007  144.6667  163.3288 C.3     1  UNL1        0.1441
     23 C         143.7891  143.5546  164.3292 C.3     1  UNL1        0.0547
     24 C         141.4577  139.4139  158.5245 C.3     1  UNL1        0.0991
     25 C         141.8456  135.6765  156.0483 C.3     1  UNL1        0.0251
     26 C         140.6367  136.5522  155.9002 C.3     1  UNL1        0.0217
     27 C         140.5074  137.7980  156.7256 C.3     1  UNL1        0.0727
     28 N         141.5870  138.1681  157.6991 N.3     1  UNL1       -0.2689
     29 C         142.7958  137.2924  157.8471 C.3     1  UNL1        0.0727
     30 C         142.9251  136.0466  157.0217 C.3     1  UNL1        0.0217
     31 C         142.4169  131.8757  155.0595 C.ar    1  UNL1        0.0500
     32 C         142.2335  131.9391  153.5721 C.ar    1  UNL1        0.0147
     33 C         141.9209  133.2483  152.9101 C.ar    1  UNL1        0.0009
     34 C         141.7916  134.4941  153.7355 C.ar    1  UNL1       -0.0042
     35 C         141.9749  134.4307  155.2229 C.ar    1  UNL1       -0.0212
     36 C         142.2876  133.1215  155.8849 C.ar    1  UNL1        0.0104
     37 C         144.4503  128.9411  156.7926 C.3     1  UNL1        0.0949
     38 C         144.1377  130.2503  156.1306 C.2     1  UNL1        0.2266
     39 O         145.2331  131.2433  155.8776 O.2     1  UNL1       -0.2748
     40 N         142.7296  130.5665  155.7215 N.am    1  UNL1       -0.2839
     41 H         142.0106  129.9148  155.8875 H       1  UNL1        0.1549
@<TRIPOS>BOND
     1    37    38    1
     2    38    39    2
     3    38    40   am
     4    40    31    1
     5    31    32   ar
     6    32    33   ar
     7    33    34   ar
     8    34    35   ar
     9    35    25    1
    10    25    26    1
    11    26    27    1
    12    27    28    1
    13    28    24    1
    14    24     1    1
    15     1     2   ar
    16     2     3   ar
    17     3     4   ar
    18     4     7    1
    19     7     8    2
    20     7     9    1
    21     9    10   ar
    22    10    11   ar
    23    11    12   ar
    24    12    13   ar
    25    13    14   ar
    26    14    15   ar
    27    15    16   ar
    28    16    17   ar
    29    17    18    1
    30    18    19    1
    31    19    20    1
    32    20    21    1
    33    21    22    1
    34    22    23    1
    35     4     5   ar
    36     5     6   ar
    37    28    29    1
    38    29    30    1
    39    35    36   ar
    40    36    31   ar
    41    30    25    1
    42     6     1   ar
    43    17     9   ar
    44    23    18    1
    45    16    11   ar
    46    40    41    1
@<TRIPOS>MOLECULE
*****
 41 46 0 0 0
SMALL
GASTEIGER

@<TRIPOS>ATOM
      1 C         141.1399  141.4316  158.1423 C.ar    1  UNL1       -0.0061
      2 C         139.6833  141.1065  158.2925 C.ar    1  UNL1       -0.0028
      3 C         138.9365  141.5555  159.5135 C.ar    1  UNL1        0.0030
      4 C         139.6465  142.3297  160.5843 C.ar    1  UNL1        0.0420
      5 C         141.1031  142.6549  160.4341 C.ar    1  UNL1        0.0030
      6 C         141.8498  142.2058  159.2131 C.ar    1  UNL1       -0.0028
      7 C         138.8998  142.7787  161.8053 C.2     1  UNL1        0.2294
      8 O         138.0158  143.9888  161.7410 O.2     1  UNL1       -0.2833
      9 C         139.0373  142.0177  163.0906 C.ar    1  UNL1        0.1833
     10 N         138.0750  140.9943  163.6165 N.ar    1  UNL1       -0.2238
     11 C         138.6041  140.4906  164.9266 C.ar    1  UNL1        0.0988
     12 C         138.0784  139.4755  165.8978 C.ar    1  UNL1        0.0206
     13 C         138.8421  139.1725  167.1527 C.ar    1  UNL1        0.0016
     14 C         140.1314  139.8846  167.4365 C.ar    1  UNL1        0.0016
     15 C         140.6571  140.8997  166.4654 C.ar    1  UNL1        0.0188
     16 C         139.8934  141.2027  165.2104 C.ar    1  UNL1        0.0789
     17 N         140.1611  142.1465  164.0757 N.ar    1  UNL1       -0.3106
     18 C         141.3449  143.0590  163.9485 C.3     1  UNL1        0.0920
     19 C         141.1485  144.5460  163.9432 C.3     1  UNL1        0.0547
     20 C         142.3323  145.4584  163.8159 C.3     1  UNL1        0.1441
     21 O         143.7124  144.8838  163.6940 O.3     1  UNL1       -0.3536
     22 C         143.9089  143.3967  163.6992 C.3     1  UNL1        0.1441
     23 C         142.7251  142.4843  163.8265 C.3     1  UNL1        0.0547
     24 C         141.8866  140.9826  156.9213 C.3     1  UNL1        0.0991
     25 C         142.0835  136.6076  155.8865 C.3     1  UNL1        0.0251
     26 C         141.6326  137.6020  154.8580 C.3     1  UNL1        0.0217
     27 C         141.5669  139.0604  155.2029 C.3     1  UNL1        0.0727
     28 N         141.9522  139.5243  156.5764 N.3     1  UNL1       -0.2689
     29 C         142.4031  138.5299  157.6049 C.3     1  UNL1        0.0727
     30 C         142.4687  137.0716  157.2600 C.3     1  UNL1        0.0217
     31 C         142.6182  132.6910  156.2396 C.ar    1  UNL1        0.0500
     32 C         142.2804  132.2326  154.8518 C.ar    1  UNL1        0.0147
     33 C         141.8769  133.2325  153.8091 C.ar    1  UNL1        0.0009
     34 C         141.8113  134.6908  154.1540 C.ar    1  UNL1       -0.0042
     35 C         142.1491  135.1493  155.5416 C.ar    1  UNL1       -0.0212
     36 C         142.5526  134.1494  156.5845 C.ar    1  UNL1        0.0104
     37 C         144.8289  130.1635  158.3549 C.3     1  UNL1        0.0949
     38 C         144.4255  131.1635  157.3121 C.2     1  UNL1        0.2266
     39 O         145.4258  131.6357  156.2990 O.2     1  UNL1       -0.2748
     40 N         143.0217  131.6911  157.2823 N.am    1  UNL1       -0.2839
     41 H         142.3651  131.3812  157.9472 H       1  UNL1        0.1549
@<TRIPOS>BOND
     1    37    38    1
     2    38    39    2
     3    38    40   am
     4    40    31    1
     5    31    32   ar
     6    32    33   ar
     7    33    34   ar
     8    34    35   ar
     9    35    25    1
    10    25    26    1
    11    26    27    1
    12    27    28    1
    13    28    24    1
    14    24     1    1
    15     1     2   ar
    16     2     3   ar
    17     3     4   ar
    18     4     7    1
    19     7     8    2
    20     7     9    1
    21     9    10   ar
    22    10    11   ar
    23    11    12   ar
    24    12    13   ar
    25    13    14   ar
    26    14    15   ar
    27    15    16   ar
    28    16    17   ar
    29    17    18    1
    30    18    19    1
    31    19    20    1
    32    20    21    1
    33    21    22    1
    34    22    23    1
    35     4     5   ar
    36     5     6   ar
    37    28    29    1
    38    29    30    1
    39    35    36   ar
    40    36    31   ar
    41    30    25    1
    42     6     1   ar
    43    17     9   ar
    44    23    18    1
    45    16    11   ar
    46    40    41    1
@<TRIPOS>MOLECULE
*****
 41 46 0 0 0
SMALL
GASTEIGER

@<TRIPOS>ATOM
      1 C         142.0161  137.9755  159.1862 C.ar    1  UNL1       -0.0061
      2 C         142.6653  137.6709  160.5036 C.ar    1  UNL1       -0.0028
      3 C         141.9076  137.8849  161.7804 C.ar    1  UNL1        0.0030
      4 C         140.5008  138.4036  161.7397 C.ar    1  UNL1        0.0420
      5 C         139.8516  138.7083  160.4222 C.ar    1  UNL1        0.0030
      6 C         140.6093  138.4943  159.1454 C.ar    1  UNL1       -0.0028
      7 C         139.7431  138.6176  163.0164 C.2     1  UNL1        0.2294
      8 O         138.3237  138.1471  163.1340 O.2     1  UNL1       -0.2833
      9 C         140.4048  139.3023  164.1755 C.ar    1  UNL1        0.1833
     10 N         141.1940  138.6329  165.2614 N.ar    1  UNL1       -0.2238
     11 C         141.6704  139.6934  166.2092 C.ar    1  UNL1        0.0988
     12 C         142.4908  139.6238  167.4630 C.ar    1  UNL1        0.0206
     13 C         142.8165  140.8791  168.2167 C.ar    1  UNL1        0.0016
     14 C         142.3217  142.2039  167.7167 C.ar    1  UNL1        0.0016
     15 C         141.5013  142.2735  166.4629 C.ar    1  UNL1        0.0188
     16 C         141.1757  141.0182  165.7091 C.ar    1  UNL1        0.0789
     17 N         140.3935  140.7765  164.4522 N.ar    1  UNL1       -0.3106
     18 C         139.7185  141.8249  163.6185 C.3     1  UNL1        0.0920
     19 C         140.3983  142.3619  162.3940 C.3     1  UNL1        0.0547
     20 C         139.7233  143.4104  161.5603 C.3     1  UNL1        0.1441
     21 O         138.3684  143.9218  161.9510 O.3     1  UNL1       -0.3536
     22 C         137.6885  143.3849  163.1755 C.3     1  UNL1        0.1441
     23 C         138.3635  142.3364  164.0093 C.3     1  UNL1        0.0547
     24 C         142.7738  137.7615  157.9093 C.3     1  UNL1        0.0991
     25 C         142.0757  134.0415  155.4754 C.3     1  UNL1        0.0251
     26 C         141.2641  135.2748  155.2099 C.3     1  UNL1        0.0217
     27 C         141.4968  136.5148  156.0212 C.3     1  UNL1        0.0727
     28 N         142.5411  136.5215  157.0980 N.3     1  UNL1       -0.2689
     29 C         143.3527  135.2883  157.3634 C.3     1  UNL1        0.0727
     30 C         143.1200  134.0483  156.5521 C.3     1  UNL1        0.0217
     31 C         140.6081  130.5433  154.3098 C.ar    1  UNL1        0.0500
     32 C         141.3776  130.3215  153.0414 C.ar    1  UNL1        0.0147
     33 C         142.3798  131.3397  152.5844 C.ar    1  UNL1        0.0009
     34 C         142.6125  132.5797  153.3957 C.ar    1  UNL1       -0.0042
     35 C         141.8430  132.8015  154.6641 C.ar    1  UNL1       -0.0212
     36 C         140.8408  131.7833  155.1211 C.ar    1  UNL1        0.0104
     37 C         139.0633  127.2689  155.9352 C.3     1  UNL1        0.0949
     38 C         140.0656  128.2871  155.4782 C.2     1  UNL1        0.2266
     39 O         141.5274  128.0673  155.7327 O.2     1  UNL1       -0.2748
     40 N         139.6059  129.5251  154.7668 N.am    1  UNL1       -0.2839
     41 H         138.6465  129.6693  154.5998 H       1  UNL1        0.1549
@<TRIPOS>BOND
     1    37    38    1
     2    38    39    2
     3    38    40   am
     4    40    31    1
     5    31    32   ar
     6    32    33   ar
     7    33    34   ar
     8    34    35   ar
     9    35    25    1
    10    25    26    1
    11    26    27    1
    12    27    28    1
    13    28    24    1
    14    24     1    1
    15     1     2   ar
    16     2     3   ar
    17     3     4   ar
    18     4     7    1
    19     7     8    2
    20     7     9    1
    21     9    10   ar
    22    10    11   ar
    23    11    12   ar
    24    12    13   ar
    25    13    14   ar
    26    14    15   ar
    27    15    16   ar
    28    16    17   ar
    29    17    18    1
    30    18    19    1
    31    19    20    1
    32    20    21    1
    33    21    22    1
    34    22    23    1
    35     4     5   ar
    36     5     6   ar
    37    28    29    1
    38    29    30    1
    39    35    36   ar
    40    36    31   ar
    41    30    25    1
    42     6     1   ar
    43    17     9   ar
    44    23    18    1
    45    16    11   ar
    46    40    41    1
