@<TRIPOS>MOLECULE
*****
 25 27 0 0 0
SMALL
GASTEIGER

@<TRIPOS>ATOM
      1 C         138.0955  140.5233  161.7109 C.3     1  UNL1        0.0964
      2 C         138.1410  140.1256  160.2653 C.3     1  UNL1        0.0901
      3 N         139.2196  139.0960  160.1016 N.3     1  UNL1       -0.2700
      4 C         139.6088  138.4232  158.8187 C.3     1  UNL1        0.0897
      5 C         139.8405  138.8574  161.4460 C.3     1  UNL1        0.0780
      6 C         139.1457  139.7395  162.4406 C.3     1  UNL1        0.0557
      7 C         139.4482  139.8230  163.9075 C.ar    1  UNL1       -0.0197
      8 C         138.6185  139.0504  164.8896 C.ar    1  UNL1       -0.0042
      9 C         138.9210  139.1340  166.3563 C.ar    1  UNL1        0.0002
     10 C         140.0533  139.9902  166.8410 C.ar    1  UNL1        0.0060
     11 C         140.8830  140.7628  165.8589 C.ar    1  UNL1        0.0002
     12 C         140.5805  140.6792  164.3921 C.ar    1  UNL1       -0.0042
     13 C         140.3558  140.0738  168.3079 C.ar    1  UNL1        0.0295
     14 C         139.3570  140.3086  169.4021 C.ar    1  UNL1        0.0070
     15 C         140.0940  140.3172  170.7085 C.ar    1  UNL1        0.0075
     16 C         141.5484  140.0876  170.4216 C.ar    1  UNL1        0.0354
     17 S         141.7101  139.9372  168.9380 S.2     1  UNL1       -0.0864
     18 N         137.1632  141.5283  162.3199 N.3     1  UNL1       -0.1830
     19 H         136.4925  141.7846  161.5954 H       1  UNL1        0.1484
     20 S         137.7044  142.8095  162.8816 S.O2    1  UNL1        0.0390
     21 O         137.4050  142.3271  164.2701 O.2     1  UNL1       -0.1576
     22 O         138.0039  143.2918  161.4933 O.2     1  UNL1       -0.1576
     23 C         138.9262  145.0769  162.5413 C.3     1  UNL1        0.0270
     24 C         138.2456  144.0906  163.4435 C.3     1  UNL1        0.1457
     25 C         138.1063  144.3854  164.9076 C.3     1  UNL1        0.0270
@<TRIPOS>BOND
     1    23    24    1
     2    24    25    1
     3    24    20    1
     4    20    21    2
     5    20    22    2
     6    20    18    1
     7     1    18    1
     8     1     2    1
     9     2     3    1
    10     3     4    1
    11     3     5    1
    12     5     6    1
    13     6     7    1
    14     7     8   ar
    15     8     9   ar
    16     9    10   ar
    17    10    13    1
    18    13    14   ar
    19    14    15   ar
    20    15    16   ar
    21    16    17   ar
    22    10    11   ar
    23    11    12   ar
    24     6     1    1
    25    12     7   ar
    26    17    13   ar
    27    18    19    1
@<TRIPOS>MOLECULE
*****
 25 27 0 0 0
SMALL
GASTEIGER

@<TRIPOS>ATOM
      1 C         141.8031  144.3654  161.3335 C.3     1  UNL1        0.0964
      2 C         141.5185  144.5233  159.8692 C.3     1  UNL1        0.0901
      3 N         140.2404  143.7994  159.5647 N.3     1  UNL1       -0.2700
      4 C         139.5831  143.6985  158.2202 C.3     1  UNL1        0.0897
      5 C         139.7352  143.1941  160.8408 C.3     1  UNL1        0.0780
      6 C         140.7010  143.5439  161.9340 C.3     1  UNL1        0.0557
      7 C         140.5850  143.1427  163.3747 C.ar    1  UNL1       -0.0197
      8 C         140.0092  144.0999  164.3758 C.ar    1  UNL1       -0.0042
      9 C         139.8933  143.6986  165.8164 C.ar    1  UNL1        0.0002
     10 C         140.3530  142.3401  166.2560 C.ar    1  UNL1        0.0060
     11 C         140.9288  141.3830  165.2549 C.ar    1  UNL1        0.0002
     12 C         141.0448  141.7842  163.8142 C.ar    1  UNL1       -0.0042
     13 C         140.2370  141.9389  167.6967 C.ar    1  UNL1        0.0295
     14 C         140.4217  142.8411  168.8808 C.ar    1  UNL1        0.0070
     15 C         140.2148  142.0249  170.1221 C.ar    1  UNL1        0.0075
     16 C         139.9023  140.6182  169.7052 C.ar    1  UNL1        0.0354
     17 S         139.9161  140.5651  168.2062 S.2     1  UNL1       -0.0864
     18 N         142.9827  144.9299  162.0682 N.3     1  UNL1       -0.1830
     19 H         143.6325  145.2742  161.3614 H       1  UNL1        0.1484
     20 S         143.7750  144.0585  162.9970 S.O2    1  UNL1        0.0390
     21 O         143.4444  144.9742  164.1382 O.2     1  UNL1       -0.1576
     22 O         144.1056  143.1427  161.8561 O.2     1  UNL1       -0.1576
     23 C         144.4931  143.4083  165.4078 C.3     1  UNL1        0.0270
     24 C         144.5673  143.1871  163.9260 C.3     1  UNL1        0.1457
     25 C         145.4337  142.0945  163.3732 C.3     1  UNL1        0.0270
@<TRIPOS>BOND
     1    23    24    1
     2    24    25    1
     3    24    20    1
     4    20    21    2
     5    20    22    2
     6    20    18    1
     7     1    18    1
     8     1     2    1
     9     2     3    1
    10     3     4    1
    11     3     5    1
    12     5     6    1
    13     6     7    1
    14     7     8   ar
    15     8     9   ar
    16     9    10   ar
    17    10    13    1
    18    13    14   ar
    19    14    15   ar
    20    15    16   ar
    21    16    17   ar
    22    10    11   ar
    23    11    12   ar
    24     6     1    1
    25    12     7   ar
    26    17    13   ar
    27    18    19    1
@<TRIPOS>MOLECULE
*****
 25 27 0 0 0
SMALL
GASTEIGER

@<TRIPOS>ATOM
      1 C         144.1857  139.8778  161.8812 C.3     1  UNL1        0.0964
      2 C         144.1277  139.3941  160.4625 C.3     1  UNL1        0.0901
      3 N         142.9356  138.4935  160.3282 N.3     1  UNL1       -0.2700
      4 C         142.4990  137.7894  159.0778 C.3     1  UNL1        0.0897
      5 C         142.2569  138.4207  161.6639 C.3     1  UNL1        0.0780
      6 C         143.0295  139.2762  162.6237 C.3     1  UNL1        0.0557
      7 C         142.7031  139.4922  164.0718 C.ar    1  UNL1       -0.0197
      8 C         141.6530  140.4891  164.4633 C.ar    1  UNL1       -0.0042
      9 C         141.3267  140.7051  165.9113 C.ar    1  UNL1        0.0002
     10 C         142.0505  139.9242  166.9679 C.ar    1  UNL1        0.0060
     11 C         143.1007  138.9273  166.5763 C.ar    1  UNL1        0.0002
     12 C         143.4270  138.7114  165.1283 C.ar    1  UNL1       -0.0042
     13 C         141.7242  140.1402  168.4160 C.ar    1  UNL1        0.0295
     14 C         140.3669  140.0147  169.0421 C.ar    1  UNL1        0.0070
     15 C         140.5016  140.3165  170.5052 C.ar    1  UNL1        0.0075
     16 C         141.9422  140.6286  170.7833 C.ar    1  UNL1        0.0354
     17 S         142.6978  140.5197  169.4921 S.2     1  UNL1       -0.0864
     18 N         145.2185  140.8011  162.4564 N.3     1  UNL1       -0.1830
     19 H         145.7465  140.2615  163.1423 H       1  UNL1        0.1484
     20 S         144.7956  142.0695  163.1360 S.O2    1  UNL1        0.0390
     21 O         145.4512  141.6087  164.4040 O.2     1  UNL1       -0.1576
     22 O         144.1400  142.5303  161.8681 O.2     1  UNL1       -0.1576
     23 C         144.3617  143.4186  165.3135 C.3     1  UNL1        0.0270
     24 C         144.3726  143.3380  163.8158 C.3     1  UNL1        0.1457
     25 C         143.9607  144.5259  162.9977 C.3     1  UNL1        0.0270
@<TRIPOS>BOND
     1    23    24    1
     2    24    25    1
     3    24    20    1
     4    20    21    2
     5    20    22    2
     6    20    18    1
     7     1    18    1
     8     1     2    1
     9     2     3    1
    10     3     4    1
    11     3     5    1
    12     5     6    1
    13     6     7    1
    14     7     8   ar
    15     8     9   ar
    16     9    10   ar
    17    10    13    1
    18    13    14   ar
    19    14    15   ar
    20    15    16   ar
    21    16    17   ar
    22    10    11   ar
    23    11    12   ar
    24     6     1    1
    25    12     7   ar
    26    17    13   ar
    27    18    19    1
@<TRIPOS>MOLECULE
*****
 25 27 0 0 0
SMALL
GASTEIGER

@<TRIPOS>ATOM
      1 C         141.6902  144.6634  161.3119 C.3     1  UNL1        0.0964
      2 C         141.8864  144.7846  159.8297 C.3     1  UNL1        0.0901
      3 N         142.7932  143.6736  159.3898 N.3     1  UNL1       -0.2700
      4 C         143.2547  143.4157  157.9861 C.3     1  UNL1        0.0897
      5 C         143.1574  142.8658  160.6001 C.3     1  UNL1        0.0780
      6 C         142.4757  143.4775  161.7880 C.3     1  UNL1        0.0557
      7 C         142.5640  142.9891  163.2035 C.ar    1  UNL1       -0.0197
      8 C         143.6147  143.5384  164.1223 C.ar    1  UNL1       -0.0042
      9 C         143.7030  143.0500  165.5378 C.ar    1  UNL1        0.0002
     10 C         142.7406  142.0122  166.0345 C.ar    1  UNL1        0.0060
     11 C         141.6899  141.4628  165.1157 C.ar    1  UNL1        0.0002
     12 C         141.6016  141.9513  163.7002 C.ar    1  UNL1       -0.0042
     13 C         142.8289  141.5237  167.4500 C.ar    1  UNL1        0.0295
     14 C         143.3165  142.3154  168.6271 C.ar    1  UNL1        0.0070
     15 C         143.2341  141.4389  169.8415 C.ar    1  UNL1        0.0075
     16 C         142.6955  140.1055  169.4150 C.ar    1  UNL1        0.0354
     17 S         142.4451  140.1579  167.9370 S.2     1  UNL1       -0.0864
     18 N         140.8551  145.5691  162.1676 N.3     1  UNL1       -0.1830
     19 H         141.4932  146.0365  162.8117 H       1  UNL1        0.1484
     20 S         139.7418  145.0012  162.9970 S.O2    1  UNL1        0.0390
     21 O         138.9383  144.7604  161.7534 O.2     1  UNL1       -0.1576
     22 O         140.5452  145.2420  164.2405 O.2     1  UNL1       -0.1576
     23 C         137.6292  143.5032  163.2044 C.3     1  UNL1        0.0270
     24 C         138.6283  144.4333  163.8262 C.3     1  UNL1        0.1457
     25 C         138.5140  144.7955  165.2773 C.3     1  UNL1        0.0270
@<TRIPOS>BOND
     1    23    24    1
     2    24    25    1
     3    24    20    1
     4    20    21    2
     5    20    22    2
     6    20    18    1
     7     1    18    1
     8     1     2    1
     9     2     3    1
    10     3     4    1
    11     3     5    1
    12     5     6    1
    13     6     7    1
    14     7     8   ar
    15     8     9   ar
    16     9    10   ar
    17    10    13    1
    18    13    14   ar
    19    14    15   ar
    20    15    16   ar
    21    16    17   ar
    22    10    11   ar
    23    11    12   ar
    24     6     1    1
    25    12     7   ar
    26    17    13   ar
    27    18    19    1
@<TRIPOS>MOLECULE
*****
 25 27 0 0 0
SMALL
GASTEIGER

@<TRIPOS>ATOM
      1 C         139.5882  138.4371  162.3409 C.3     1  UNL1        0.0964
      2 C         138.9765  138.4578  160.9714 C.3     1  UNL1        0.0901
      3 N         137.9733  139.5723  160.9286 N.3     1  UNL1       -0.2700
      4 C         137.1270  139.9520  159.7498 C.3     1  UNL1        0.0897
      5 C         137.9651  140.2403  162.2716 C.3     1  UNL1        0.0780
      6 C         138.9631  139.5387  163.1444 C.3     1  UNL1        0.0557
      7 C         139.2804  139.8791  164.5705 C.ar    1  UNL1       -0.0197
      8 C         138.6437  139.1043  165.6860 C.ar    1  UNL1       -0.0042
      9 C         138.9609  139.4447  167.1119 C.ar    1  UNL1        0.0002
     10 C         139.9149  140.5599  167.4224 C.ar    1  UNL1        0.0060
     11 C         140.5516  141.3346  166.3070 C.ar    1  UNL1        0.0002
     12 C         140.2343  140.9943  164.8810 C.ar    1  UNL1       -0.0042
     13 C         140.2322  140.9002  168.8485 C.ar    1  UNL1        0.0295
     14 C         140.5863  139.9233  169.9303 C.ar    1  UNL1        0.0070
     15 C         140.8240  140.6965  171.1935 C.ar    1  UNL1        0.0075
     16 C         140.6167  142.1513  170.8924 C.ar    1  UNL1        0.0354
     17 S         140.2509  142.2772  169.4431 S.2     1  UNL1       -0.0864
     18 N         140.6402  137.4824  162.8222 N.3     1  UNL1       -0.1830
     19 H         140.1733  136.8146  163.4358 H       1  UNL1        0.1484
     20 S         141.8340  137.9967  163.5707 S.O2    1  UNL1        0.0390
     21 O         142.2242  138.8226  162.3808 O.2     1  UNL1       -0.1576
     22 O         141.4438  137.1710  164.7605 O.2     1  UNL1       -0.1576
     23 C         143.0875  138.3865  165.8127 C.3     1  UNL1        0.0270
     24 C         143.0278  138.5111  164.3191 C.3     1  UNL1        0.1457
     25 C         144.1619  139.1502  163.5739 C.3     1  UNL1        0.0270
@<TRIPOS>BOND
     1    23    24    1
     2    24    25    1
     3    24    20    1
     4    20    21    2
     5    20    22    2
     6    20    18    1
     7     1    18    1
     8     1     2    1
     9     2     3    1
    10     3     4    1
    11     3     5    1
    12     5     6    1
    13     6     7    1
    14     7     8   ar
    15     8     9   ar
    16     9    10   ar
    17    10    13    1
    18    13    14   ar
    19    14    15   ar
    20    15    16   ar
    21    16    17   ar
    22    10    11   ar
    23    11    12   ar
    24     6     1    1
    25    12     7   ar
    26    17    13   ar
    27    18    19    1
@<TRIPOS>MOLECULE
*****
 25 27 0 0 0
SMALL
GASTEIGER

@<TRIPOS>ATOM
      1 C         143.4291  142.8999  160.9072 C.3     1  UNL1        0.0964
      2 C         143.0080  143.6147  159.6575 C.3     1  UNL1        0.0901
      3 N         141.8723  144.5302  160.0074 N.3     1  UNL1       -0.2700
      4 C         141.1451  145.4356  159.0580 C.3     1  UNL1        0.0897
      5 C         141.5916  144.3811  161.4733 C.3     1  UNL1        0.0780
      6 C         142.5537  143.3735  162.0294 C.3     1  UNL1        0.0557
      7 C         142.6275  142.9194  163.4572 C.ar    1  UNL1       -0.0197
      8 C         143.7494  143.3872  164.3360 C.ar    1  UNL1       -0.0042
      9 C         143.8231  142.9330  165.7636 C.ar    1  UNL1        0.0002
     10 C         142.7749  142.0110  166.3125 C.ar    1  UNL1        0.0060
     11 C         141.6530  141.5432  165.4336 C.ar    1  UNL1        0.0002
     12 C         141.5793  141.9974  164.0060 C.ar    1  UNL1       -0.0042
     13 C         142.8487  141.5569  167.7402 C.ar    1  UNL1        0.0295
     14 C         143.3831  142.3546  168.8927 C.ar    1  UNL1        0.0070
     15 C         143.2657  141.5160  170.1309 C.ar    1  UNL1        0.0075
     16 C         142.6588  140.2001  169.7436 C.ar    1  UNL1        0.0354
     17 S         142.4011  140.2253  168.2661 S.2     1  UNL1       -0.0864
     18 N         144.5319  141.8890  161.0156 N.3     1  UNL1       -0.1830
     19 H         144.7622  141.6015  160.0644 H       1  UNL1        0.1484
     20 S         144.3231  140.6333  161.8089 S.O2    1  UNL1        0.0390
     21 O         145.4981  140.9839  162.6729 O.2     1  UNL1       -0.1576
     22 O         143.1481  140.2828  160.9450 O.2     1  UNL1       -0.1576
     23 C         144.3845  139.3691  164.0778 C.3     1  UNL1        0.0270
     24 C         144.1144  139.3776  162.6024 C.3     1  UNL1        0.1457
     25 C         143.6356  138.1303  161.9204 C.3     1  UNL1        0.0270
@<TRIPOS>BOND
     1    23    24    1
     2    24    25    1
     3    24    20    1
     4    20    21    2
     5    20    22    2
     6    20    18    1
     7     1    18    1
     8     1     2    1
     9     2     3    1
    10     3     4    1
    11     3     5    1
    12     5     6    1
    13     6     7    1
    14     7     8   ar
    15     8     9   ar
    16     9    10   ar
    17    10    13    1
    18    13    14   ar
    19    14    15   ar
    20    15    16   ar
    21    16    17   ar
    22    10    11   ar
    23    11    12   ar
    24     6     1    1
    25    12     7   ar
    26    17    13   ar
    27    18    19    1
@<TRIPOS>MOLECULE
*****
 25 27 0 0 0
SMALL
GASTEIGER

@<TRIPOS>ATOM
      1 C         138.4044  142.2035  161.3594 C.3     1  UNL1        0.0964
      2 C         138.3436  142.5651  159.9049 C.3     1  UNL1        0.0901
      3 N         139.4612  143.5239  159.6185 N.3     1  UNL1       -0.2700
      4 C         139.7725  144.1430  158.2882 C.3     1  UNL1        0.0897
      5 C         140.2126  143.7548  160.8960 C.3     1  UNL1        0.0780
      6 C         139.5595  142.9387  161.9719 C.3     1  UNL1        0.0557
      7 C         139.9865  142.8700  163.4083 C.ar    1  UNL1       -0.0197
      8 C         141.1126  141.9657  163.8135 C.ar    1  UNL1       -0.0042
      9 C         141.5396  141.8970  165.2497 C.ar    1  UNL1        0.0002
     10 C         140.8405  142.7326  166.2808 C.ar    1  UNL1        0.0060
     11 C         139.7145  143.6369  165.8756 C.ar    1  UNL1        0.0002
     12 C         139.2875  143.7056  164.4393 C.ar    1  UNL1       -0.0042
     13 C         141.2676  142.6639  167.7171 C.ar    1  UNL1        0.0295
     14 C         140.4722  143.1382  168.8971 C.ar    1  UNL1        0.0070
     15 C         141.2779  142.8763  170.1349 C.ar    1  UNL1        0.0075
     16 C         142.5714  142.2400  169.7199 C.ar    1  UNL1        0.0354
     17 S         142.5650  142.1088  168.2256 S.2     1  UNL1       -0.0864
     18 N         137.4736  141.2704  162.0755 N.3     1  UNL1       -0.1830
     19 H         136.9627  141.8305  162.7579 H       1  UNL1        0.1484
     20 S         138.0209  140.0838  162.8119 S.O2    1  UNL1        0.0390
     21 O         137.5900  140.6928  164.1133 O.2     1  UNL1       -0.1576
     22 O         138.4517  139.4748  161.5107 O.2     1  UNL1       -0.1576
     23 C         138.6721  138.9257  165.0446 C.3     1  UNL1        0.0270
     24 C         138.5681  138.8972  163.5485 C.3     1  UNL1        0.1457
     25 C         139.0114  137.6821  162.7889 C.3     1  UNL1        0.0270
@<TRIPOS>BOND
     1    23    24    1
     2    24    25    1
     3    24    20    1
     4    20    21    2
     5    20    22    2
     6    20    18    1
     7     1    18    1
     8     1     2    1
     9     2     3    1
    10     3     4    1
    11     3     5    1
    12     5     6    1
    13     6     7    1
    14     7     8   ar
    15     8     9   ar
    16     9    10   ar
    17    10    13    1
    18    13    14   ar
    19    14    15   ar
    20    15    16   ar
    21    16    17   ar
    22    10    11   ar
    23    11    12   ar
    24     6     1    1
    25    12     7   ar
    26    17    13   ar
    27    18    19    1
@<TRIPOS>MOLECULE
*****
 25 27 0 0 0
SMALL
GASTEIGER

@<TRIPOS>ATOM
      1 C         142.5862  138.4623  161.2382 C.3     1  UNL1        0.0964
      2 C         142.9984  138.3525  159.8002 C.3     1  UNL1        0.0901
      3 N         143.5440  139.6825  159.3715 N.3     1  UNL1       -0.2700
      4 C         144.0719  140.0212  158.0090 C.3     1  UNL1        0.0897
      5 C         143.4689  140.6141  160.5447 C.3     1  UNL1        0.0780
      6 C         142.8770  139.8600  161.6984 C.3     1  UNL1        0.0557
      7 C         142.6208  140.4076  163.0712 C.ar    1  UNL1       -0.0197
      8 C         143.5487  140.0672  164.1996 C.ar    1  UNL1       -0.0042
      9 C         143.2925  140.6148  165.5723 C.ar    1  UNL1        0.0002
     10 C         142.1085  141.5027  165.8167 C.ar    1  UNL1        0.0060
     11 C         141.1806  141.8430  164.6884 C.ar    1  UNL1        0.0002
     12 C         141.4368  141.2955  163.3156 C.ar    1  UNL1       -0.0042
     13 C         141.8523  142.0502  167.1896 C.ar    1  UNL1        0.0295
     14 C         140.5672  142.6551  167.6719 C.ar    1  UNL1        0.0070
     15 C         140.7569  143.0677  169.1015 C.ar    1  UNL1        0.0075
     16 C         142.1593  142.7179  169.5027 C.ar    1  UNL1        0.0354
     17 S         142.8363  142.0891  168.3211 S.2     1  UNL1       -0.0864
     18 N         141.9882  137.3666  162.0700 N.3     1  UNL1       -0.1830
     19 H         141.8954  136.5528  161.4622 H       1  UNL1        0.1484
     20 S         140.6566  137.5679  162.7304 S.O2    1  UNL1        0.0390
     21 O         140.0190  137.7598  161.3863 O.2     1  UNL1       -0.1576
     22 O         141.2941  137.3760  164.0745 O.2     1  UNL1       -0.1576
     23 C         138.1557  138.2574  162.5878 C.3     1  UNL1        0.0270
     24 C         139.3249  137.7692  163.3908 C.3     1  UNL1        0.1457
     25 C         139.1623  137.4823  164.8541 C.3     1  UNL1        0.0270
@<TRIPOS>BOND
     1    23    24    1
     2    24    25    1
     3    24    20    1
     4    20    21    2
     5    20    22    2
     6    20    18    1
     7     1    18    1
     8     1     2    1
     9     2     3    1
    10     3     4    1
    11     3     5    1
    12     5     6    1
    13     6     7    1
    14     7     8   ar
    15     8     9   ar
    16     9    10   ar
    17    10    13    1
    18    13    14   ar
    19    14    15   ar
    20    15    16   ar
    21    16    17   ar
    22    10    11   ar
    23    11    12   ar
    24     6     1    1
    25    12     7   ar
    26    17    13   ar
    27    18    19    1
@<TRIPOS>MOLECULE
*****
 25 27 0 0 0
SMALL
GASTEIGER

@<TRIPOS>ATOM
      1 C         142.9303  143.5206  161.1831 C.3     1  UNL1        0.0964
      2 C         143.2411  143.3007  159.7322 C.3     1  UNL1        0.0901
      3 N         143.8236  141.9261  159.5860 N.3     1  UNL1       -0.2700
      4 C         144.2772  141.2925  158.3044 C.3     1  UNL1        0.0897
      5 C         143.8727  141.2965  160.9466 C.3     1  UNL1        0.0780
      6 C         143.3207  142.2819  161.9336 C.3     1  UNL1        0.0557
      7 C         143.1832  142.0665  163.4118 C.ar    1  UNL1       -0.0197
      8 C         142.1882  141.0737  163.9356 C.ar    1  UNL1       -0.0042
      9 C         142.0507  140.8583  165.4136 C.ar    1  UNL1        0.0002
     10 C         142.9082  141.6356  166.3678 C.ar    1  UNL1        0.0060
     11 C         143.9032  142.6284  165.8440 C.ar    1  UNL1        0.0002
     12 C         144.0406  142.8438  164.3659 C.ar    1  UNL1       -0.0042
     13 C         142.7707  141.4202  167.8459 C.ar    1  UNL1        0.0295
     14 C         142.9114  142.4711  168.9070 C.ar    1  UNL1        0.0070
     15 C         142.6960  141.8165  170.2393 C.ar    1  UNL1        0.0075
     16 C         142.4221  140.3609  170.0016 C.ar    1  UNL1        0.0354
     17 S         142.4683  140.1160  168.5225 S.2     1  UNL1       -0.0864
     18 N         142.3339  144.7613  161.7788 N.3     1  UNL1       -0.1830
     19 H         143.0585  145.1886  162.3557 H       1  UNL1        0.1484
     20 S         141.1023  144.6675  162.6298 S.O2    1  UNL1        0.0390
     21 O         141.8252  145.3524  163.7515 O.2     1  UNL1       -0.1576
     22 O         140.3793  143.9826  161.5081 O.2     1  UNL1       -0.1576
     23 C         139.9889  144.2290  164.9359 C.3     1  UNL1        0.0270
     24 C         139.8706  144.5737  163.4808 C.3     1  UNL1        0.1457
     25 C         138.5207  144.8247  162.8769 C.3     1  UNL1        0.0270
@<TRIPOS>BOND
     1    23    24    1
     2    24    25    1
     3    24    20    1
     4    20    21    2
     5    20    22    2
     6    20    18    1
     7     1    18    1
     8     1     2    1
     9     2     3    1
    10     3     4    1
    11     3     5    1
    12     5     6    1
    13     6     7    1
    14     7     8   ar
    15     8     9   ar
    16     9    10   ar
    17    10    13    1
    18    13    14   ar
    19    14    15   ar
    20    15    16   ar
    21    16    17   ar
    22    10    11   ar
    23    11    12   ar
    24     6     1    1
    25    12     7   ar
    26    17    13   ar
    27    18    19    1
