@<TRIPOS>MOLECULE
*****
 40 45 0 0 0
SMALL
GASTEIGER

@<TRIPOS>ATOM
      1 C         146.5807  143.1246  154.9854 C.3     1  UNL1        0.0437
      2 C         145.6290  141.9775  155.1547 C.3     1  UNL1        0.1368
      3 C         145.8966  141.8787  153.6820 C.3     1  UNL1        0.0437
      4 C         144.7703  140.7962  154.8126 C.3     1  UNL1        0.0643
      5 C         143.9744  140.1120  155.8842 C.3     1  UNL1        0.1023
      6 C         144.0373  140.6091  157.2980 C.ar    1  UNL1        0.0488
      7 C         143.2414  139.9249  158.3697 C.ar    1  UNL1        0.0034
      8 C         143.3043  140.4220  159.7835 C.ar    1  UNL1        0.0177
      9 C         144.1631  141.6033  160.1257 C.ar    1  UNL1        0.0851
     10 N         144.9589  142.2875  159.0540 N.ar    1  UNL1       -0.2119
     11 C         144.8960  141.7904  157.6402 C.ar    1  UNL1        0.2219
     12 O         145.6918  142.4746  156.5685 O.3     1  UNL1       -0.4676
     13 C         144.2259  142.1004  161.5395 C.ar    1  UNL1        0.0284
     14 C         145.2007  141.4941  162.5051 C.ar    1  UNL1        0.0032
     15 C         145.2635  141.9913  163.9190 C.ar    1  UNL1        0.0115
     16 C         144.3516  143.0947  164.3672 C.ar    1  UNL1        0.0585
     17 CL        144.4145  143.5918  165.7810 Cl      1  UNL1       -0.0822
     18 C         143.3769  143.7010  163.4017 C.ar    1  UNL1        0.0228
     19 C         143.3140  143.2039  161.9879 C.ar    1  UNL1        0.0599
     20 CL        142.3393  143.8101  161.0223 Cl      1  UNL1       -0.0822
     21 C         142.5085  139.7378  160.8552 C.ar    1  UNL1        0.0015
     22 C         141.1209  140.2091  161.1754 C.ar    1  UNL1        0.0009
     23 C         140.3250  139.5249  162.2471 C.ar    1  UNL1        0.0114
     24 C         140.9168  138.3693  162.9986 C.ar    1  UNL1        0.0577
     25 CL        140.1210  137.6851  164.0702 Cl      1  UNL1       -0.0822
     26 C         142.3043  137.8981  162.6783 C.ar    1  UNL1        0.0114
     27 C         143.1002  138.5823  161.6066 C.ar    1  UNL1        0.0009
     28 N         143.1157  138.9306  155.5420 N.am    1  UNL1       -0.2987
     29 C         143.7463  137.5939  155.2867 C.2     1  UNL1        0.2428
     30 O         145.2357  137.4383  155.3735 O.2     1  UNL1       -0.2705
     31 H         142.1381  139.0327  155.4851 H       1  UNL1        0.1500
     32 C         142.8876  136.4125  154.9445 C.2     1  UNL1        0.0422
     33 C         142.0503  136.4293  153.7000 C.2     1  UNL1        0.0010
     34 C         141.1916  135.2480  153.3578 C.2     1  UNL1        0.0011
     35 C         141.1702  134.0499  154.2600 C.2     1  UNL1        0.0172
     36 C         142.0075  134.0331  155.5045 C.2     1  UNL1        0.0901
     37 N         142.1901  133.0010  156.5775 N.2     1  UNL1       -0.1519
     38 N         143.1617  133.5444  157.5828 N.2     1  UNL1       -0.1507
     39 C         143.5795  134.9123  157.1312 C.2     1  UNL1        0.1059
     40 C         142.8662  135.2144  155.8467 C.3     1  UNL1        0.1117
@<TRIPOS>BOND
     1     1     2    1
     2     2     3    1
     3     2     4    1
     4     4     5    1
     5     5    28    1
     6    28    29   am
     7    29    30    2
     8    29    32    1
     9    32    33    2
    10    33    34    1
    11    34    35    2
    12    35    36    1
    13    36    37    2
    14    37    38    1
    15    38    39    2
    16    39    40    1
    17     5     6    1
    18     6     7   ar
    19     7     8   ar
    20     8    21    1
    21    21    22   ar
    22    22    23   ar
    23    23    24   ar
    24    24    25    1
    25    24    26   ar
    26    26    27   ar
    27     8     9   ar
    28     9    13    1
    29    13    14   ar
    30    14    15   ar
    31    15    16   ar
    32    16    17    1
    33    16    18   ar
    34    18    19   ar
    35    19    20    1
    36     9    10   ar
    37    10    11   ar
    38    11    12    1
    39    12     2    1
    40    40    32    1
    41    11     6   ar
    42    40    36    1
    43    27    21   ar
    44    19    13   ar
    45    28    31    1
@<TRIPOS>MOLECULE
*****
 40 45 0 0 0
SMALL
GASTEIGER

@<TRIPOS>ATOM
      1 C         137.4836  140.6929  154.1181 C.3     1  UNL1        0.0437
      2 C         138.2676  139.5745  154.7381 C.3     1  UNL1        0.1368
      3 C         138.1718  139.0745  153.3271 C.3     1  UNL1        0.0437
      4 C         139.0183  138.2824  154.8681 C.3     1  UNL1        0.0643
      5 C         139.5925  137.8788  156.1938 C.3     1  UNL1        0.1023
      6 C         139.4160  138.7672  157.3894 C.ar    1  UNL1        0.0488
      7 C         139.9902  138.3635  158.7151 C.ar    1  UNL1        0.0034
      8 C         139.8137  139.2519  159.9107 C.ar    1  UNL1        0.0177
      9 C         139.0629  140.5440  159.7807 C.ar    1  UNL1        0.0851
     10 N         138.4887  140.9477  158.4550 N.ar    1  UNL1       -0.2119
     11 C         138.6653  140.0592  157.2594 C.ar    1  UNL1        0.2219
     12 O         138.0910  140.4629  155.9337 O.3     1  UNL1       -0.4676
     13 C         138.8864  141.4324  160.9763 C.ar    1  UNL1        0.0284
     14 C         137.6972  141.2553  161.8732 C.ar    1  UNL1        0.0032
     15 C         137.5207  142.1438  163.0689 C.ar    1  UNL1        0.0115
     16 C         138.5333  143.2092  163.3676 C.ar    1  UNL1        0.0585
     17 CL        138.3568  144.0976  164.5632 Cl      1  UNL1       -0.0822
     18 C         139.7225  143.3863  162.4707 C.ar    1  UNL1        0.0228
     19 C         139.8991  142.4979  161.2751 C.ar    1  UNL1        0.0599
     20 CL        141.0883  142.6750  160.3782 Cl      1  UNL1       -0.0822
     21 C         140.3879  138.8482  161.2363 C.ar    1  UNL1        0.0015
     22 C         141.7543  139.3200  161.6367 C.ar    1  UNL1        0.0009
     23 C         142.3285  138.9164  162.9624 C.ar    1  UNL1        0.0114
     24 C         141.5363  138.0409  163.8876 C.ar    1  UNL1        0.0577
     25 CL        142.1105  137.6372  165.2133 Cl      1  UNL1       -0.0822
     26 C         140.1699  137.5691  163.4872 C.ar    1  UNL1        0.0114
     27 C         139.5957  137.9728  162.1615 C.ar    1  UNL1        0.0009
     28 N         140.3433  136.5866  156.3238 N.am    1  UNL1       -0.2987
     29 C         141.7826  136.5105  155.9085 C.2     1  UNL1        0.2428
     30 O         142.4713  137.7264  155.3632 O.2     1  UNL1       -0.2705
     31 H         139.8913  135.7886  156.6816 H       1  UNL1        0.1500
     32 C         142.5334  135.2184  156.0385 C.2     1  UNL1        0.0422
     33 C         143.3171  134.9284  157.2842 C.2     1  UNL1        0.0010
     34 C         144.0678  133.6363  157.4142 C.2     1  UNL1        0.0011
     35 C         144.0349  132.6343  156.2985 C.2     1  UNL1        0.0172
     36 C         143.2512  132.9243  155.0528 C.2     1  UNL1        0.0901
     37 N         143.0348  132.1340  153.7964 N.2     1  UNL1       -0.1519
     38 N         142.1503  132.9377  152.8899 N.2     1  UNL1       -0.1507
     39 C         141.8201  134.2246  153.5860 C.2     1  UNL1        0.1059
     40 C         142.5005  134.2163  154.9228 C.3     1  UNL1        0.1117
@<TRIPOS>BOND
     1     1     2    1
     2     2     3    1
     3     2     4    1
     4     4     5    1
     5     5    28    1
     6    28    29   am
     7    29    30    2
     8    29    32    1
     9    32    33    2
    10    33    34    1
    11    34    35    2
    12    35    36    1
    13    36    37    2
    14    37    38    1
    15    38    39    2
    16    39    40    1
    17     5     6    1
    18     6     7   ar
    19     7     8   ar
    20     8    21    1
    21    21    22   ar
    22    22    23   ar
    23    23    24   ar
    24    24    25    1
    25    24    26   ar
    26    26    27   ar
    27     8     9   ar
    28     9    13    1
    29    13    14   ar
    30    14    15   ar
    31    15    16   ar
    32    16    17    1
    33    16    18   ar
    34    18    19   ar
    35    19    20    1
    36     9    10   ar
    37    10    11   ar
    38    11    12    1
    39    12     2    1
    40    40    32    1
    41    11     6   ar
    42    40    36    1
    43    27    21   ar
    44    19    13   ar
    45    28    31    1
@<TRIPOS>MOLECULE
*****
 40 45 0 0 0
SMALL
GASTEIGER

@<TRIPOS>ATOM
      1 C         144.0234  135.2157  156.1347 C.3     1  UNL1        0.0437
      2 C         142.9454  136.2539  156.0347 C.3     1  UNL1        0.1368
      3 C         143.0248  135.8219  154.6004 C.3     1  UNL1        0.0437
      4 C         141.8950  137.1422  155.4367 C.3     1  UNL1        0.0643
      5 C         141.1396  138.1018  156.3076 C.3     1  UNL1        0.1023
      6 C         141.4346  138.1732  157.7765 C.ar    1  UNL1        0.0488
      7 C         140.6792  139.1328  158.6474 C.ar    1  UNL1        0.0034
      8 C         140.9742  139.2042  160.1164 C.ar    1  UNL1        0.0177
      9 C         142.0246  138.3160  160.7145 C.ar    1  UNL1        0.0851
     10 N         142.7801  137.3564  159.8436 N.ar    1  UNL1       -0.2119
     11 C         142.4850  137.2850  158.3746 C.ar    1  UNL1        0.2219
     12 O         143.2404  136.3254  157.5037 O.3     1  UNL1       -0.4676
     13 C         142.3196  138.3874  162.1834 C.ar    1  UNL1        0.0284
     14 C         141.4793  137.6137  163.1557 C.ar    1  UNL1        0.0032
     15 C         141.7743  137.6852  164.6247 C.ar    1  UNL1        0.0115
     16 C         142.9097  138.5303  165.1214 C.ar    1  UNL1        0.0585
     17 CL        143.2046  138.6017  166.5903 Cl      1  UNL1       -0.0822
     18 C         143.7500  139.3040  164.1492 C.ar    1  UNL1        0.0228
     19 C         143.4550  139.2326  162.6802 C.ar    1  UNL1        0.0599
     20 CL        144.2953  140.0063  161.7080 Cl      1  UNL1       -0.0822
     21 C         140.2188  140.1639  160.9873 C.ar    1  UNL1        0.0015
     22 C         138.8784  139.7793  161.5401 C.ar    1  UNL1        0.0009
     23 C         138.1230  140.7389  162.4110 C.ar    1  UNL1        0.0114
     24 C         138.7080  142.0831  162.7291 C.ar    1  UNL1        0.0577
     25 CL        137.9525  143.0427  163.6000 Cl      1  UNL1       -0.0822
     26 C         140.0483  142.4676  162.1762 C.ar    1  UNL1        0.0114
     27 C         140.8037  141.5080  161.3053 C.ar    1  UNL1        0.0009
     28 N         140.0892  138.9900  155.7095 N.am    1  UNL1       -0.2987
     29 C         138.7153  138.4512  155.4412 C.2     1  UNL1        0.2428
     30 O         138.3918  137.0241  155.7709 O.2     1  UNL1       -0.2705
     31 H         140.3015  139.9267  155.4930 H       1  UNL1        0.1500
     32 C         137.6648  139.3394  154.8430 C.2     1  UNL1        0.0422
     33 C         136.8908  138.8820  153.6423 C.2     1  UNL1        0.0010
     34 C         135.8404  139.7702  153.0442 C.2     1  UNL1        0.0011
     35 C         135.5640  141.1157  153.6468 C.2     1  UNL1        0.0172
     36 C         136.3381  141.5731  154.8475 C.2     1  UNL1        0.0901
     37 N         136.2867  142.8375  155.6529 N.2     1  UNL1       -0.1519
     38 N         137.3054  142.7307  156.7487 N.2     1  UNL1       -0.1507
     39 C         137.9863  141.4004  156.6206 C.2     1  UNL1        0.1059
     40 C         137.3885  140.6849  155.4456 C.3     1  UNL1        0.1117
@<TRIPOS>BOND
     1     1     2    1
     2     2     3    1
     3     2     4    1
     4     4     5    1
     5     5    28    1
     6    28    29   am
     7    29    30    2
     8    29    32    1
     9    32    33    2
    10    33    34    1
    11    34    35    2
    12    35    36    1
    13    36    37    2
    14    37    38    1
    15    38    39    2
    16    39    40    1
    17     5     6    1
    18     6     7   ar
    19     7     8   ar
    20     8    21    1
    21    21    22   ar
    22    22    23   ar
    23    23    24   ar
    24    24    25    1
    25    24    26   ar
    26    26    27   ar
    27     8     9   ar
    28     9    13    1
    29    13    14   ar
    30    14    15   ar
    31    15    16   ar
    32    16    17    1
    33    16    18   ar
    34    18    19   ar
    35    19    20    1
    36     9    10   ar
    37    10    11   ar
    38    11    12    1
    39    12     2    1
    40    40    32    1
    41    11     6   ar
    42    40    36    1
    43    27    21   ar
    44    19    13   ar
    45    28    31    1
@<TRIPOS>MOLECULE
*****
 40 45 0 0 0
SMALL
GASTEIGER

@<TRIPOS>ATOM
      1 C         136.6914  143.2797  155.2923 C.3     1  UNL1        0.0437
      2 C         137.4245  142.0317  155.6860 C.3     1  UNL1        0.1368
      3 C         137.1751  141.7407  154.2357 C.3     1  UNL1        0.0437
      4 C         138.0710  140.6826  155.5761 C.3     1  UNL1        0.0643
      5 C         138.7123  140.0580  156.7796 C.3     1  UNL1        0.1023
      6 C         138.7070  140.7823  158.0931 C.ar    1  UNL1        0.0488
      7 C         139.3483  140.1576  159.2967 C.ar    1  UNL1        0.0034
      8 C         139.3431  140.8820  160.6101 C.ar    1  UNL1        0.0177
      9 C         138.6966  142.2311  160.7201 C.ar    1  UNL1        0.0851
     10 N         138.0553  142.8558  159.5165 N.ar    1  UNL1       -0.2119
     11 C         138.0606  142.1313  158.2030 C.ar    1  UNL1        0.2219
     12 O         137.4193  142.7560  156.9995 O.3     1  UNL1       -0.4676
     13 C         138.6914  142.9554  162.0336 C.ar    1  UNL1        0.0284
     14 C         137.6216  142.6673  163.0448 C.ar    1  UNL1        0.0032
     15 C         137.6165  143.3917  164.3583 C.ar    1  UNL1        0.0115
     16 C         138.6810  144.4042  164.6606 C.ar    1  UNL1        0.0585
     17 CL        138.6758  145.1286  165.9740 Cl      1  UNL1       -0.0822
     18 C         139.7508  144.6924  163.6493 C.ar    1  UNL1        0.0228
     19 C         139.7560  143.9681  162.3359 C.ar    1  UNL1        0.0599
     20 CL        140.8258  144.2563  161.3247 Cl      1  UNL1       -0.0822
     21 C         139.9844  140.2573  161.8137 C.ar    1  UNL1        0.0015
     22 C         139.2048  139.3021  162.6680 C.ar    1  UNL1        0.0009
     23 C         139.8460  138.6774  163.8716 C.ar    1  UNL1        0.0114
     24 C         141.2669  139.0079  164.2208 C.ar    1  UNL1        0.0577
     25 CL        141.9082  138.3833  165.4243 Cl      1  UNL1       -0.0822
     26 C         142.0465  139.9631  163.3665 C.ar    1  UNL1        0.0114
     27 C         141.4052  140.5878  162.1629 C.ar    1  UNL1        0.0009
     28 N         139.3588  138.7089  156.6697 N.am    1  UNL1       -0.2987
     29 C         140.7630  138.5897  156.1561 C.2     1  UNL1        0.2428
     30 O         141.5208  139.8197  155.7524 O.2     1  UNL1       -0.2705
     31 H         138.8614  137.9016  156.9346 H       1  UNL1        0.1500
     32 C         141.4095  137.2406  156.0461 C.2     1  UNL1        0.0422
     33 C         142.3558  136.7733  157.1121 C.2     1  UNL1        0.0010
     34 C         143.0023  135.4243  157.0021 C.2     1  UNL1        0.0011
     35 C         142.7025  134.5426  155.8263 C.2     1  UNL1        0.0172
     36 C         141.7562  135.0099  154.7604 C.2     1  UNL1        0.0901
     37 N         141.2718  134.3654  153.4954 N.2     1  UNL1       -0.1519
     38 N         140.3259  135.3162  152.8236 N.2     1  UNL1       -0.1507
     39 C         140.2258  136.5482  153.6733 C.2     1  UNL1        0.1059
     40 C         141.1097  136.3589  154.8703 C.3     1  UNL1        0.1117
@<TRIPOS>BOND
     1     1     2    1
     2     2     3    1
     3     2     4    1
     4     4     5    1
     5     5    28    1
     6    28    29   am
     7    29    30    2
     8    29    32    1
     9    32    33    2
    10    33    34    1
    11    34    35    2
    12    35    36    1
    13    36    37    2
    14    37    38    1
    15    38    39    2
    16    39    40    1
    17     5     6    1
    18     6     7   ar
    19     7     8   ar
    20     8    21    1
    21    21    22   ar
    22    22    23   ar
    23    23    24   ar
    24    24    25    1
    25    24    26   ar
    26    26    27   ar
    27     8     9   ar
    28     9    13    1
    29    13    14   ar
    30    14    15   ar
    31    15    16   ar
    32    16    17    1
    33    16    18   ar
    34    18    19   ar
    35    19    20    1
    36     9    10   ar
    37    10    11   ar
    38    11    12    1
    39    12     2    1
    40    40    32    1
    41    11     6   ar
    42    40    36    1
    43    27    21   ar
    44    19    13   ar
    45    28    31    1
@<TRIPOS>MOLECULE
*****
 40 45 0 0 0
SMALL
GASTEIGER

@<TRIPOS>ATOM
      1 C         146.9832  142.9777  155.1051 C.3     1  UNL1        0.0437
      2 C         146.2805  141.6605  155.2510 C.3     1  UNL1        0.1368
      3 C         147.0545  141.4048  153.9918 C.3     1  UNL1        0.0437
      4 C         145.8466  140.2546  154.9596 C.3     1  UNL1        0.0643
      5 C         144.8828  139.5618  155.8766 C.3     1  UNL1        0.1023
      6 C         144.3528  140.2749  157.0851 C.ar    1  UNL1        0.0488
      7 C         143.3889  139.5821  158.0022 C.ar    1  UNL1        0.0034
      8 C         142.8589  140.2953  159.2106 C.ar    1  UNL1        0.0177
      9 C         143.2927  141.7013  159.5021 C.ar    1  UNL1        0.0851
     10 N         144.2566  142.3941  158.5850 N.ar    1  UNL1       -0.2119
     11 C         144.7866  141.6809  157.3765 C.ar    1  UNL1        0.2219
     12 O         145.7505  142.3737  156.4594 O.3     1  UNL1       -0.4676
     13 C         142.7627  142.4145  160.7105 C.ar    1  UNL1        0.0284
     14 C         141.5049  143.2257  160.6111 C.ar    1  UNL1        0.0032
     15 C         140.9749  143.9389  161.8197 C.ar    1  UNL1        0.0115
     16 C         141.7027  143.8409  163.1276 C.ar    1  UNL1        0.0585
     17 CL        141.1727  144.5540  164.3360 Cl      1  UNL1       -0.0822
     18 C         142.9605  143.0297  163.2270 C.ar    1  UNL1        0.0228
     19 C         143.4906  142.3165  162.0185 C.ar    1  UNL1        0.0599
     20 CL        144.7484  141.5054  162.1179 Cl      1  UNL1       -0.0822
     21 C         141.8950  139.6025  160.1277 C.ar    1  UNL1        0.0015
     22 C         140.4182  139.7279  159.8969 C.ar    1  UNL1        0.0009
     23 C         139.4543  139.0351  160.8140 C.ar    1  UNL1        0.0114
     24 C         139.9673  138.2169  161.9618 C.ar    1  UNL1        0.0577
     25 CL        139.0035  137.5241  162.8789 Cl      1  UNL1       -0.0822
     26 C         141.4441  138.0915  162.1925 C.ar    1  UNL1        0.0114
     27 C         142.4080  138.7843  161.2754 C.ar    1  UNL1        0.0009
     28 N         144.4489  138.1557  155.5852 N.am    1  UNL1       -0.2987
     29 C         143.1088  137.8981  154.9625 C.2     1  UNL1        0.2428
     30 O         142.2025  139.0465  154.6313 O.2     1  UNL1       -0.2705
     31 H         145.0438  137.4019  155.8025 H       1  UNL1        0.1500
     32 C         142.6750  136.4921  154.6711 C.2     1  UNL1        0.0422
     33 C         142.1082  136.1456  153.3262 C.2     1  UNL1        0.0010
     34 C         141.6743  134.7397  153.0347 C.2     1  UNL1        0.0011
     35 C         141.8073  133.6801  154.0881 C.2     1  UNL1        0.0172
     36 C         142.3741  134.0266  155.4330 C.2     1  UNL1        0.0901
     37 N         142.6243  133.2006  156.6598 N.2     1  UNL1       -0.1519
     38 N         143.2127  134.0960  157.7095 N.2     1  UNL1       -0.1507
     39 C         143.3262  135.4754  157.1314 C.2     1  UNL1        0.1059
     40 C         142.8079  135.4326  155.7245 C.3     1  UNL1        0.1117
@<TRIPOS>BOND
     1     1     2    1
     2     2     3    1
     3     2     4    1
     4     4     5    1
     5     5    28    1
     6    28    29   am
     7    29    30    2
     8    29    32    1
     9    32    33    2
    10    33    34    1
    11    34    35    2
    12    35    36    1
    13    36    37    2
    14    37    38    1
    15    38    39    2
    16    39    40    1
    17     5     6    1
    18     6     7   ar
    19     7     8   ar
    20     8    21    1
    21    21    22   ar
    22    22    23   ar
    23    23    24   ar
    24    24    25    1
    25    24    26   ar
    26    26    27   ar
    27     8     9   ar
    28     9    13    1
    29    13    14   ar
    30    14    15   ar
    31    15    16   ar
    32    16    17    1
    33    16    18   ar
    34    18    19   ar
    35    19    20    1
    36     9    10   ar
    37    10    11   ar
    38    11    12    1
    39    12     2    1
    40    40    32    1
    41    11     6   ar
    42    40    36    1
    43    27    21   ar
    44    19    13   ar
    45    28    31    1
@<TRIPOS>MOLECULE
*****
 40 45 0 0 0
SMALL
GASTEIGER

@<TRIPOS>ATOM
      1 C         143.4789  135.6155  156.2918 C.3     1  UNL1        0.0437
      2 C         142.7780  136.9415  156.2695 C.3     1  UNL1        0.1368
      3 C         142.7467  136.6056  154.8079 C.3     1  UNL1        0.0437
      4 C         142.0662  138.1508  155.7395 C.3     1  UNL1        0.0643
      5 C         141.6291  139.2355  156.6789 C.3     1  UNL1        0.1023
      6 C         141.9038  139.1109  158.1482 C.ar    1  UNL1        0.0488
      7 C         141.4667  140.1956  159.0876 C.ar    1  UNL1        0.0034
      8 C         141.7414  140.0710  160.5569 C.ar    1  UNL1        0.0177
      9 C         142.4532  138.8616  161.0869 C.ar    1  UNL1        0.0851
     10 N         142.8903  137.7769  160.1476 N.ar    1  UNL1       -0.2119
     11 C         142.6156  137.9016  158.6782 C.ar    1  UNL1        0.2219
     12 O         143.0527  136.8169  157.7388 O.3     1  UNL1       -0.4676
     13 C         142.7279  138.7370  162.5563 C.ar    1  UNL1        0.0284
     14 C         143.9821  139.3201  163.1369 C.ar    1  UNL1        0.0032
     15 C         144.2567  139.1954  164.6063 C.ar    1  UNL1        0.0115
     16 C         143.2773  138.4877  165.4950 C.ar    1  UNL1        0.0585
     17 CL        143.5520  138.3631  166.9643 Cl      1  UNL1       -0.0822
     18 C         142.0231  137.9047  164.9143 C.ar    1  UNL1        0.0228
     19 C         141.7484  138.0293  163.4450 C.ar    1  UNL1        0.0599
     20 CL        140.4943  137.4462  162.8644 Cl      1  UNL1       -0.0822
     21 C         141.3043  141.1557  161.4963 C.ar    1  UNL1        0.0015
     22 C         139.9739  141.0621  162.1829 C.ar    1  UNL1        0.0009
     23 C         139.5368  142.1468  163.1222 C.ar    1  UNL1        0.0114
     24 C         140.4302  143.3250  163.3750 C.ar    1  UNL1        0.0577
     25 CL        139.9931  144.4097  164.3144 Cl      1  UNL1       -0.0822
     26 C         141.7605  143.4185  162.6884 C.ar    1  UNL1        0.0114
     27 C         142.1976  142.3338  161.7491 C.ar    1  UNL1        0.0009
     28 N         140.9173  140.4449  156.1488 N.am    1  UNL1       -0.2987
     29 C         139.4213  140.5263  156.2210 C.2     1  UNL1        0.2428
     30 O         138.6370  139.3983  156.8232 O.2     1  UNL1       -0.2705
     31 H         141.4320  141.1852  155.7536 H       1  UNL1        0.1500
     32 C         138.7095  141.7356  155.6910 C.2     1  UNL1        0.0422
     33 C         137.5408  141.5721  154.7650 C.2     1  UNL1        0.0010
     34 C         136.8290  142.7814  154.2349 C.2     1  UNL1        0.0011
     35 C         137.2858  144.1541  154.6309 C.2     1  UNL1        0.0172
     36 C         138.4545  144.3176  155.5570 C.2     1  UNL1        0.0901
     37 N         139.1271  145.5348  156.1191 N.2     1  UNL1       -0.1519
     38 N         140.2545  145.0778  156.9966 N.2     1  UNL1       -0.1507
     39 C         140.2788  143.5782  156.9767 C.2     1  UNL1        0.1059
     40 C         139.1663  143.1083  156.0870 C.3     1  UNL1        0.1117
@<TRIPOS>BOND
     1     1     2    1
     2     2     3    1
     3     2     4    1
     4     4     5    1
     5     5    28    1
     6    28    29   am
     7    29    30    2
     8    29    32    1
     9    32    33    2
    10    33    34    1
    11    34    35    2
    12    35    36    1
    13    36    37    2
    14    37    38    1
    15    38    39    2
    16    39    40    1
    17     5     6    1
    18     6     7   ar
    19     7     8   ar
    20     8    21    1
    21    21    22   ar
    22    22    23   ar
    23    23    24   ar
    24    24    25    1
    25    24    26   ar
    26    26    27   ar
    27     8     9   ar
    28     9    13    1
    29    13    14   ar
    30    14    15   ar
    31    15    16   ar
    32    16    17    1
    33    16    18   ar
    34    18    19   ar
    35    19    20    1
    36     9    10   ar
    37    10    11   ar
    38    11    12    1
    39    12     2    1
    40    40    32    1
    41    11     6   ar
    42    40    36    1
    43    27    21   ar
    44    19    13   ar
    45    28    31    1
@<TRIPOS>MOLECULE
*****
 40 45 0 0 0
SMALL
GASTEIGER

@<TRIPOS>ATOM
      1 C         139.4958  145.8992  155.1182 C.3     1  UNL1        0.0437
      2 C         139.9115  144.4775  155.3552 C.3     1  UNL1        0.1368
      3 C         140.0545  144.5455  153.8635 C.3     1  UNL1        0.0437
      4 C         140.3768  143.0795  155.0741 C.3     1  UNL1        0.0643
      5 C         140.5548  142.1072  156.2024 C.3     1  UNL1        0.1023
      6 C         140.2674  142.5329  157.6117 C.ar    1  UNL1        0.0488
      7 C         140.4454  141.5606  158.7399 C.ar    1  UNL1        0.0034
      8 C         140.1580  141.9863  160.1492 C.ar    1  UNL1        0.0177
      9 C         139.6926  143.3844  160.4303 C.ar    1  UNL1        0.0851
     10 N         139.5147  144.3567  159.3021 N.ar    1  UNL1       -0.2119
     11 C         139.8021  143.9309  157.8927 C.ar    1  UNL1        0.2219
     12 O         139.6241  144.9032  156.7645 O.3     1  UNL1       -0.4676
     13 C         139.4053  143.8101  161.8396 C.ar    1  UNL1        0.0284
     14 C         138.0404  143.5966  162.4241 C.ar    1  UNL1        0.0032
     15 C         137.7531  144.0223  163.8335 C.ar    1  UNL1        0.0115
     16 C         138.8306  144.6615  164.6583 C.ar    1  UNL1        0.0585
     17 CL        138.5432  145.0872  166.0676 Cl      1  UNL1       -0.0822
     18 C         140.1954  144.8749  164.0739 C.ar    1  UNL1        0.0228
     19 C         140.4828  144.4493  162.6646 C.ar    1  UNL1        0.0599
     20 CL        141.8477  144.6627  162.0801 Cl      1  UNL1       -0.0822
     21 C         140.3360  141.0140  161.2775 C.ar    1  UNL1        0.0015
     22 C         141.6457  140.9410  162.0052 C.ar    1  UNL1        0.0009
     23 C         141.8236  139.9687  163.1334 C.ar    1  UNL1        0.0114
     24 C         140.6919  139.0694  163.5340 C.ar    1  UNL1        0.0577
     25 CL        140.8698  138.0971  164.6622 Cl      1  UNL1       -0.0822
     26 C         139.3822  139.1424  162.8063 C.ar    1  UNL1        0.0114
     27 C         139.2043  140.1147  161.6781 C.ar    1  UNL1        0.0009
     28 N         141.0201  140.7091  155.9213 N.am    1  UNL1       -0.2987
     29 C         140.0193  139.6031  155.7632 C.2     1  UNL1        0.2428
     30 O         138.5532  139.8950  155.8863 O.2     1  UNL1       -0.2705
     31 H         141.9824  140.5175  155.8405 H       1  UNL1        0.1500
     32 C         140.4847  138.2050  155.4821 C.2     1  UNL1        0.0422
     33 C         139.9620  137.4670  154.2854 C.2     1  UNL1        0.0010
     34 C         140.4273  136.0690  154.0043 C.2     1  UNL1        0.0011
     35 C         141.4153  135.4091  154.9199 C.2     1  UNL1        0.0172
     36 C         141.9379  136.1471  156.1166 C.2     1  UNL1        0.0901
     37 N         142.9112  135.7580  157.1896 N.2     1  UNL1       -0.1519
     38 N         143.0474  136.9155  158.1338 N.2     1  UNL1       -0.1507
     39 C         142.1584  138.0199  157.6444 C.2     1  UNL1        0.1059
     40 C         141.4726  137.5451  156.3977 C.3     1  UNL1        0.1117
@<TRIPOS>BOND
     1     1     2    1
     2     2     3    1
     3     2     4    1
     4     4     5    1
     5     5    28    1
     6    28    29   am
     7    29    30    2
     8    29    32    1
     9    32    33    2
    10    33    34    1
    11    34    35    2
    12    35    36    1
    13    36    37    2
    14    37    38    1
    15    38    39    2
    16    39    40    1
    17     5     6    1
    18     6     7   ar
    19     7     8   ar
    20     8    21    1
    21    21    22   ar
    22    22    23   ar
    23    23    24   ar
    24    24    25    1
    25    24    26   ar
    26    26    27   ar
    27     8     9   ar
    28     9    13    1
    29    13    14   ar
    30    14    15   ar
    31    15    16   ar
    32    16    17    1
    33    16    18   ar
    34    18    19   ar
    35    19    20    1
    36     9    10   ar
    37    10    11   ar
    38    11    12    1
    39    12     2    1
    40    40    32    1
    41    11     6   ar
    42    40    36    1
    43    27    21   ar
    44    19    13   ar
    45    28    31    1
@<TRIPOS>MOLECULE
*****
 40 45 0 0 0
SMALL
GASTEIGER

@<TRIPOS>ATOM
      1 C         140.6665  145.2169  155.1879 C.3     1  UNL1        0.0437
      2 C         140.7299  143.7525  155.5068 C.3     1  UNL1        0.1368
      3 C         141.0352  143.7129  154.0387 C.3     1  UNL1        0.0437
      4 C         140.8994  142.2745  155.3159 C.3     1  UNL1        0.0643
      5 C         140.7415  141.3446  156.4822 C.3     1  UNL1        0.1023
      6 C         140.4142  141.8928  157.8395 C.ar    1  UNL1        0.0488
      7 C         140.2563  140.9629  159.0059 C.ar    1  UNL1        0.0034
      8 C         139.9290  141.5111  160.3632 C.ar    1  UNL1        0.0177
      9 C         139.7595  142.9893  160.5542 C.ar    1  UNL1        0.0851
     10 N         139.9174  143.9191  159.3878 N.ar    1  UNL1       -0.2119
     11 C         140.2447  143.3709  158.0305 C.ar    1  UNL1        0.2219
     12 O         140.4026  144.3007  156.8641 O.3     1  UNL1       -0.4676
     13 C         139.4322  143.5375  161.9115 C.ar    1  UNL1        0.0284
     14 C         138.0195  143.5006  162.4145 C.ar    1  UNL1        0.0032
     15 C         137.6922  144.0489  163.7719 C.ar    1  UNL1        0.0115
     16 C         138.7776  144.6339  164.6261 C.ar    1  UNL1        0.0585
     17 CL        138.4502  145.1821  165.9834 Cl      1  UNL1       -0.0822
     18 C         140.1902  144.6708  164.1231 C.ar    1  UNL1        0.0228
     19 C         140.5175  144.1226  162.7658 C.ar    1  UNL1        0.0599
     20 CL        141.9302  144.1594  162.2627 Cl      1  UNL1       -0.0822
     21 C         139.7711  140.5812  161.5295 C.ar    1  UNL1        0.0015
     22 C         140.9225  140.3450  162.4616 C.ar    1  UNL1        0.0009
     23 C         140.7647  139.4151  163.6279 C.ar    1  UNL1        0.0114
     24 C         139.4554  138.7215  163.8623 C.ar    1  UNL1        0.0577
     25 CL        139.2976  137.7916  165.0286 Cl      1  UNL1       -0.0822
     26 C         138.3041  138.9577  162.9303 C.ar    1  UNL1        0.0114
     27 C         138.4620  139.8876  161.7639 C.ar    1  UNL1        0.0009
     28 N         140.9110  139.8664  156.2913 N.am    1  UNL1       -0.2987
     29 C         142.2805  139.2562  156.3385 C.2     1  UNL1        0.2428
     30 O         143.4805  140.1241  156.5767 O.2     1  UNL1       -0.2705
     31 H         140.1234  139.2968  156.1349 H       1  UNL1        0.1500
     32 C         142.4499  137.7781  156.1475 C.2     1  UNL1        0.0422
     33 C         142.8230  136.9093  157.3121 C.2     1  UNL1        0.0010
     34 C         142.9924  135.4312  157.1211 C.2     1  UNL1        0.0011
     35 C         142.7889  134.8219  155.7657 C.2     1  UNL1        0.0172
     36 C         142.4159  135.6907  154.6012 C.2     1  UNL1        0.0901
     37 N         142.1517  135.3764  153.1585 N.2     1  UNL1       -0.1519
     38 N         141.8189  136.6602  152.4578 N.2     1  UNL1       -0.1507
     39 C         141.8775  137.7679  153.4674 C.2     1  UNL1        0.1059
     40 C         142.2464  137.1688  154.7921 C.3     1  UNL1        0.1117
@<TRIPOS>BOND
     1     1     2    1
     2     2     3    1
     3     2     4    1
     4     4     5    1
     5     5    28    1
     6    28    29   am
     7    29    30    2
     8    29    32    1
     9    32    33    2
    10    33    34    1
    11    34    35    2
    12    35    36    1
    13    36    37    2
    14    37    38    1
    15    38    39    2
    16    39    40    1
    17     5     6    1
    18     6     7   ar
    19     7     8   ar
    20     8    21    1
    21    21    22   ar
    22    22    23   ar
    23    23    24   ar
    24    24    25    1
    25    24    26   ar
    26    26    27   ar
    27     8     9   ar
    28     9    13    1
    29    13    14   ar
    30    14    15   ar
    31    15    16   ar
    32    16    17    1
    33    16    18   ar
    34    18    19   ar
    35    19    20    1
    36     9    10   ar
    37    10    11   ar
    38    11    12    1
    39    12     2    1
    40    40    32    1
    41    11     6   ar
    42    40    36    1
    43    27    21   ar
    44    19    13   ar
    45    28    31    1
@<TRIPOS>MOLECULE
*****
 40 45 0 0 0
SMALL
GASTEIGER

@<TRIPOS>ATOM
      1 C         143.4377  135.5656  156.4313 C.3     1  UNL1        0.0437
      2 C         142.8083  136.9267  156.3923 C.3     1  UNL1        0.1368
      3 C         142.7816  136.5854  154.9319 C.3     1  UNL1        0.0437
      4 C         142.1697  138.1692  155.8462 C.3     1  UNL1        0.0643
      5 C         141.7764  139.2803  156.7739 C.3     1  UNL1        0.1023
      6 C         142.0217  139.1489  158.2478 C.ar    1  UNL1        0.0488
      7 C         141.6284  140.2601  159.1756 C.ar    1  UNL1        0.0034
      8 C         141.8738  140.1287  160.6495 C.ar    1  UNL1        0.0177
      9 C         142.5125  138.8862  161.1958 C.ar    1  UNL1        0.0851
     10 N         142.9058  137.7751  160.2680 N.ar    1  UNL1       -0.2119
     11 C         142.6604  137.9065  158.7940 C.ar    1  UNL1        0.2219
     12 O         143.0537  136.7954  157.8663 O.3     1  UNL1       -0.4676
     13 C         142.7578  138.7548  162.6697 C.ar    1  UNL1        0.0284
     14 C         143.9956  139.3432  163.2794 C.ar    1  UNL1        0.0032
     15 C         144.2409  139.2118  164.7534 C.ar    1  UNL1        0.0115
     16 C         143.2485  138.4921  165.6176 C.ar    1  UNL1        0.0585
     17 CL        143.4938  138.3608  167.0916 Cl      1  UNL1       -0.0822
     18 C         142.0107  137.9038  165.0080 C.ar    1  UNL1        0.0228
     19 C         141.7653  138.0351  163.5341 C.ar    1  UNL1        0.0599
     20 CL        140.5275  137.4468  162.9244 Cl      1  UNL1       -0.0822
     21 C         141.4805  141.2398  161.5773 C.ar    1  UNL1        0.0015
     22 C         142.4366  142.3631  161.8500 C.ar    1  UNL1        0.0009
     23 C         142.0433  143.4742  162.7777 C.ar    1  UNL1        0.0114
     24 C         140.6939  143.4621  163.4328 C.ar    1  UNL1        0.0577
     25 CL        140.3006  144.5732  164.3605 Cl      1  UNL1       -0.0822
     26 C         139.7378  142.3389  163.1601 C.ar    1  UNL1        0.0114
     27 C         140.1311  141.2278  162.2323 C.ar    1  UNL1        0.0009
     28 N         141.1377  140.5228  156.2277 N.am    1  UNL1       -0.2987
     29 C         141.9790  141.7265  155.9225 C.2     1  UNL1        0.2428
     30 O         143.4590  141.6879  156.1636 O.2     1  UNL1       -0.2705
     31 H         140.1663  140.5482  156.0694 H       1  UNL1        0.1500
     32 C         141.3403  142.9691  155.3763 C.2     1  UNL1        0.0422
     33 C         141.1129  143.1087  153.9002 C.2     1  UNL1        0.0010
     34 C         140.4743  144.3511  153.3539 C.2     1  UNL1        0.0011
     35 C         140.0630  145.4539  154.2837 C.2     1  UNL1        0.0172
     36 C         140.2904  145.3143  155.7598 C.2     1  UNL1        0.0901
     37 N         139.9921  146.2272  156.9121 N.2     1  UNL1       -0.1519
     38 N         140.4464  145.5489  158.1705 N.2     1  UNL1       -0.1507
     39 C         141.0255  144.2169  157.7959 C.2     1  UNL1        0.1059
     40 C         140.9291  144.0719  156.3061 C.3     1  UNL1        0.1117
@<TRIPOS>BOND
     1     1     2    1
     2     2     3    1
     3     2     4    1
     4     4     5    1
     5     5    28    1
     6    28    29   am
     7    29    30    2
     8    29    32    1
     9    32    33    2
    10    33    34    1
    11    34    35    2
    12    35    36    1
    13    36    37    2
    14    37    38    1
    15    38    39    2
    16    39    40    1
    17     5     6    1
    18     6     7   ar
    19     7     8   ar
    20     8    21    1
    21    21    22   ar
    22    22    23   ar
    23    23    24   ar
    24    24    25    1
    25    24    26   ar
    26    26    27   ar
    27     8     9   ar
    28     9    13    1
    29    13    14   ar
    30    14    15   ar
    31    15    16   ar
    32    16    17    1
    33    16    18   ar
    34    18    19   ar
    35    19    20    1
    36     9    10   ar
    37    10    11   ar
    38    11    12    1
    39    12     2    1
    40    40    32    1
    41    11     6   ar
    42    40    36    1
    43    27    21   ar
    44    19    13   ar
    45    28    31    1
