@<TRIPOS>MOLECULE
*****
 40 44 0 0 0
SMALL
GASTEIGER

@<TRIPOS>ATOM
      1 N         140.4489  138.5989  162.5173 N.pl3   1  UNL1       -0.3035
      2 C         141.8807  138.1798  162.3609 C.3     1  UNL1        0.1082
      3 C         142.4635  137.9978  160.9908 C.3     1  UNL1        0.0938
      4 N         141.6146  138.2349  159.7771 N.3     1  UNL1       -0.2695
      5 C         140.1829  138.6539  159.9334 C.3     1  UNL1        0.0938
      6 C         139.6000  138.8359  161.3035 C.3     1  UNL1        0.1082
      7 C         141.3472  142.3300  164.8671 C.ar    1  UNL1        0.0594
      8 C         140.7643  142.5120  166.2371 C.ar    1  UNL1        0.0147
      9 C         139.8821  141.4503  166.8239 C.ar    1  UNL1        0.0027
     10 C         139.5826  140.2066  166.0407 C.ar    1  UNL1        0.0189
     11 C         138.7003  139.1449  166.6275 C.ar    1  UNL1        0.0016
     12 C         138.4009  137.9012  165.8443 C.ar    1  UNL1        0.0014
     13 C         138.9838  137.7192  164.4742 C.ar    1  UNL1        0.0160
     14 C         139.8661  138.7809  163.8873 C.ar    1  UNL1        0.0658
     15 C         140.1655  140.0246  164.6707 C.ar    1  UNL1        0.0941
     16 N         141.0478  141.0863  164.0838 N.ar    1  UNL1       -0.2484
     17 C         142.2295  143.3917  164.2802 C.3     1  UNL1        0.0517
     18 C         143.7207  143.2365  164.3244 C.3     1  UNL1        0.0480
     19 O         144.5441  144.3763  162.1397 O.co2   1  UNL1       -0.5492
     20 C         144.5074  143.1834  163.0484 C.2     1  UNL1        0.0507
     21 O         145.2574  141.9374  162.6809 O.co2   1  UNL1       -0.5492
     22 C         142.1975  138.0529  158.4070 C.3     1  UNL1        0.0769
     23 C         143.2721  138.9792  157.9200 C.3     1  UNL1        0.0437
     24 C         143.0853  140.4640  158.0220 C.ar    1  UNL1       -0.0206
     25 C         142.0435  141.1479  157.1872 C.ar    1  UNL1       -0.0011
     26 C         141.8566  142.6327  157.2891 C.ar    1  UNL1        0.0366
     27 C         142.7116  143.4336  158.2259 C.ar    1  UNL1        0.1385
     28 C         143.7535  142.7497  159.0606 C.ar    1  UNL1        0.0366
     29 C         143.9403  141.2649  158.9587 C.ar    1  UNL1       -0.0011
     30 O         142.5248  144.9185  158.3278 O.3     1  UNL1       -0.4754
     31 C         141.3795  145.4777  159.1187 C.3     1  UNL1        0.2068
     32 C         141.2086  145.1004  160.5604 C.3     1  UNL1        0.0646
     33 C         139.9869  145.5408  161.3111 C.3     1  UNL1        0.0759
     34 N         139.1928  144.5439  162.1022 N.3     1  UNL1       -0.2726
     35 C         138.8332  143.2788  161.3809 C.3     1  UNL1        0.0721
     36 C         138.0552  142.1013  161.8893 C.3     1  UNL1        0.0173
     37 C         137.4449  141.8981  163.2444 C.3     1  UNL1        0.0015
     38 C         137.4617  142.8222  164.4257 C.3     1  UNL1        0.0015
     39 C         138.0930  144.1778  164.5439 C.3     1  UNL1        0.0173
     40 C         138.8634  144.9440  163.5098 C.3     1  UNL1        0.0721
@<TRIPOS>UNITY_ATOM_ATTR
19 1
charge -1
@<TRIPOS>BOND
     1    19    20   ar
     2    20    21   ar
     3    20    18    1
     4    18    17    1
     5    17     7    1
     6     7     8   ar
     7     8     9   ar
     8     9    10   ar
     9    10    11   ar
    10    11    12   ar
    11    12    13   ar
    12    13    14   ar
    13    14     1    1
    14     1     2    1
    15     2     3    1
    16     3     4    1
    17     4    22    1
    18    22    23    1
    19    23    24    1
    20    24    25   ar
    21    25    26   ar
    22    26    27   ar
    23    27    30    1
    24    30    31    1
    25    31    32    1
    26    32    33    1
    27    33    34    1
    28    34    35    1
    29    35    36    1
    30    36    37    1
    31    37    38    1
    32    38    39    1
    33    39    40    1
    34    27    28   ar
    35    28    29   ar
    36     4     5    1
    37     5     6    1
    38    14    15   ar
    39    15    16   ar
    40    16     7   ar
    41    15    10   ar
    42     6     1    1
    43    29    24   ar
    44    40    34    1
@<TRIPOS>MOLECULE
*****
 40 44 0 0 0
SMALL
GASTEIGER

@<TRIPOS>ATOM
      1 N         140.5019  138.5091  163.5574 N.pl3   1  UNL1       -0.3035
      2 C         139.7115  138.6514  162.2905 C.3     1  UNL1        0.1082
      3 C         140.3684  138.4037  160.9648 C.3     1  UNL1        0.0938
      4 N         141.8156  138.0137  160.9062 N.3     1  UNL1       -0.2695
      5 C         142.6060  137.8714  162.1731 C.3     1  UNL1        0.0938
      6 C         141.9492  138.1191  163.4986 C.3     1  UNL1        0.1082
      7 C         142.2779  141.4857  166.4271 C.ar    1  UNL1        0.0594
      8 C         141.6211  141.7334  167.7527 C.ar    1  UNL1        0.0147
      9 C         140.3723  140.9889  168.1217 C.ar    1  UNL1        0.0027
     10 C         139.7803  139.9967  167.1652 C.ar    1  UNL1        0.0189
     11 C         138.5315  139.2522  167.5342 C.ar    1  UNL1        0.0016
     12 C         137.9395  138.2600  166.5776 C.ar    1  UNL1        0.0014
     13 C         138.5963  138.0123  165.2520 C.ar    1  UNL1        0.0160
     14 C         139.8451  138.7568  164.8829 C.ar    1  UNL1        0.0658
     15 C         140.4371  139.7490  165.8396 C.ar    1  UNL1        0.0941
     16 N         141.6859  140.4935  165.4706 N.ar    1  UNL1       -0.2484
     17 C         143.5267  142.2302  166.0581 C.3     1  UNL1        0.0517
     18 C         144.0137  142.2213  164.6394 C.3     1  UNL1        0.0480
     19 O         144.9003  139.7792  164.6278 O.co2   1  UNL1       -0.5492
     20 C         145.0334  141.2116  164.2028 C.2     1  UNL1        0.0507
     21 O         146.1862  141.6342  163.3410 O.co2   1  UNL1       -0.5492
     22 C         142.4724  137.7660  159.5806 C.3     1  UNL1        0.0769
     23 C         142.9116  138.9233  158.7333 C.3     1  UNL1        0.0437
     24 C         142.8799  140.3156  159.2907 C.ar    1  UNL1       -0.0206
     25 C         143.9723  140.7816  160.2070 C.ar    1  UNL1       -0.0011
     26 C         143.9407  142.1738  160.7644 C.ar    1  UNL1        0.0366
     27 C         142.8167  143.0999  160.4055 C.ar    1  UNL1        0.1385
     28 C         141.7244  142.6339  159.4892 C.ar    1  UNL1        0.0366
     29 C         141.7560  141.2417  158.9318 C.ar    1  UNL1       -0.0011
     30 O         142.7850  144.4922  160.9629 O.3     1  UNL1       -0.4754
     31 C         142.9290  144.7123  162.4396 C.3     1  UNL1        0.2068
     32 C         141.8530  145.4298  163.1994 C.3     1  UNL1        0.0646
     33 C         140.4392  145.4077  162.6987 C.3     1  UNL1        0.0759
     34 N         139.5558  144.2329  162.9980 N.3     1  UNL1       -0.2726
     35 C         138.9332  143.5666  161.8071 C.3     1  UNL1        0.0721
     36 C         138.0129  142.3826  161.7727 C.3     1  UNL1        0.0173
     37 C         137.4880  141.5724  162.9208 C.3     1  UNL1        0.0015
     38 C         137.7537  141.7462  164.3868 C.3     1  UNL1        0.0015
     39 C         138.6100  142.7731  165.0669 C.3     1  UNL1        0.0173
     40 C         139.4120  143.8797  164.4487 C.3     1  UNL1        0.0721
@<TRIPOS>UNITY_ATOM_ATTR
19 1
charge -1
@<TRIPOS>BOND
     1    19    20   ar
     2    20    21   ar
     3    20    18    1
     4    18    17    1
     5    17     7    1
     6     7     8   ar
     7     8     9   ar
     8     9    10   ar
     9    10    11   ar
    10    11    12   ar
    11    12    13   ar
    12    13    14   ar
    13    14     1    1
    14     1     2    1
    15     2     3    1
    16     3     4    1
    17     4    22    1
    18    22    23    1
    19    23    24    1
    20    24    25   ar
    21    25    26   ar
    22    26    27   ar
    23    27    30    1
    24    30    31    1
    25    31    32    1
    26    32    33    1
    27    33    34    1
    28    34    35    1
    29    35    36    1
    30    36    37    1
    31    37    38    1
    32    38    39    1
    33    39    40    1
    34    27    28   ar
    35    28    29   ar
    36     4     5    1
    37     5     6    1
    38    14    15   ar
    39    15    16   ar
    40    16     7   ar
    41    15    10   ar
    42     6     1    1
    43    29    24   ar
    44    40    34    1
@<TRIPOS>MOLECULE
*****
 40 44 0 0 0
SMALL
GASTEIGER

@<TRIPOS>ATOM
      1 N         140.2234  138.5634  164.1579 N.pl3   1  UNL1       -0.3035
      2 C         141.5805  137.9244  164.1508 C.3     1  UNL1        0.1082
      3 C         142.3774  137.8704  162.8811 C.3     1  UNL1        0.0938
      4 N         141.8173  138.4553  161.6186 N.3     1  UNL1       -0.2695
      5 C         140.4602  139.0943  161.6257 C.3     1  UNL1        0.0938
      6 C         139.6633  139.1484  162.8953 C.3     1  UNL1        0.1082
      7 C         141.2827  141.5489  167.3540 C.ar    1  UNL1        0.0594
      8 C         140.4858  141.6029  168.6236 C.ar    1  UNL1        0.0147
      9 C         139.3358  140.6618  168.8279 C.ar    1  UNL1        0.0027
     10 C         138.9827  139.6666  167.7625 C.ar    1  UNL1        0.0189
     11 C         137.8326  138.7255  167.9668 C.ar    1  UNL1        0.0016
     12 C         137.4795  137.7304  166.9015 C.ar    1  UNL1        0.0014
     13 C         138.2765  137.6763  165.6318 C.ar    1  UNL1        0.0160
     14 C         139.4265  138.6174  165.4275 C.ar    1  UNL1        0.0658
     15 C         139.7796  139.6126  166.4929 C.ar    1  UNL1        0.0941
     16 N         140.9296  140.5537  166.2886 N.ar    1  UNL1       -0.2484
     17 C         142.4328  142.4900  167.1497 C.3     1  UNL1        0.0517
     18 C         143.6387  142.4045  168.0376 C.3     1  UNL1        0.0480
     19 O         143.5299  140.7670  170.0517 O.co2   1  UNL1       -0.5492
     20 C         143.4713  142.1640  169.5087 C.2     1  UNL1        0.0507
     21 O         143.2454  143.3206  170.4369 O.co2   1  UNL1       -0.5492
     22 C         142.6142  138.4013  160.3490 C.3     1  UNL1        0.0769
     23 C         143.8908  139.1800  160.2311 C.3     1  UNL1        0.0437
     24 C         143.9804  140.5642  160.8022 C.ar    1  UNL1       -0.0206
     25 C         143.3615  141.7186  160.0712 C.ar    1  UNL1       -0.0011
     26 C         143.4511  143.1028  160.6422 C.ar    1  UNL1        0.0366
     27 C         144.1596  143.3325  161.9442 C.ar    1  UNL1        0.1385
     28 C         144.7785  142.1781  162.6752 C.ar    1  UNL1        0.0366
     29 C         144.6889  140.7939  162.1041 C.ar    1  UNL1       -0.0011
     30 O         144.2493  144.7167  162.5153 O.3     1  UNL1       -0.4754
     31 C         143.6081  145.0262  163.8356 C.3     1  UNL1        0.2068
     32 C         142.2364  145.6315  163.8796 C.3     1  UNL1        0.0646
     33 C         141.2366  145.3022  162.8110 C.3     1  UNL1        0.0759
     34 N         140.1150  144.3494  163.1013 N.3     1  UNL1       -0.2726
     35 C         139.8832  144.0391  164.5504 C.3     1  UNL1        0.0721
     36 C         138.8526  143.1357  165.1602 C.3     1  UNL1        0.0173
     37 C         137.7993  142.3195  164.4715 C.3     1  UNL1        0.0015
     38 C         137.5165  142.2051  163.0028 C.3     1  UNL1        0.0015
     39 C         138.2170  142.8786  161.8602 C.3     1  UNL1        0.0173
     40 C         139.3734  143.8329  161.9041 C.3     1  UNL1        0.0721
@<TRIPOS>UNITY_ATOM_ATTR
19 1
charge -1
@<TRIPOS>BOND
     1    19    20   ar
     2    20    21   ar
     3    20    18    1
     4    18    17    1
     5    17     7    1
     6     7     8   ar
     7     8     9   ar
     8     9    10   ar
     9    10    11   ar
    10    11    12   ar
    11    12    13   ar
    12    13    14   ar
    13    14     1    1
    14     1     2    1
    15     2     3    1
    16     3     4    1
    17     4    22    1
    18    22    23    1
    19    23    24    1
    20    24    25   ar
    21    25    26   ar
    22    26    27   ar
    23    27    30    1
    24    30    31    1
    25    31    32    1
    26    32    33    1
    27    33    34    1
    28    34    35    1
    29    35    36    1
    30    36    37    1
    31    37    38    1
    32    38    39    1
    33    39    40    1
    34    27    28   ar
    35    28    29   ar
    36     4     5    1
    37     5     6    1
    38    14    15   ar
    39    15    16   ar
    40    16     7   ar
    41    15    10   ar
    42     6     1    1
    43    29    24   ar
    44    40    34    1
@<TRIPOS>MOLECULE
*****
 40 44 0 0 0
SMALL
GASTEIGER

@<TRIPOS>ATOM
      1 N         140.7498  143.2757  164.8365 N.pl3   1  UNL1       -0.3035
      2 C         139.3618  143.4633  164.2994 C.3     1  UNL1        0.1082
      3 C         139.1321  144.3417  163.1053 C.3     1  UNL1        0.0938
      4 N         140.2902  145.0324  162.4484 N.3     1  UNL1       -0.2695
      5 C         141.6782  144.8447  162.9854 C.3     1  UNL1        0.0938
      6 C         141.9079  143.9664  164.1794 C.3     1  UNL1        0.1082
      7 C         143.3678  139.6331  164.4796 C.ar    1  UNL1        0.0594
      8 C         143.5975  138.7548  165.6736 C.ar    1  UNL1        0.0147
      9 C         142.9547  139.0906  166.9866 C.ar    1  UNL1        0.0027
     10 C         142.0820  140.3048  167.1056 C.ar    1  UNL1        0.0189
     11 C         141.4391  140.6407  168.4185 C.ar    1  UNL1        0.0016
     12 C         140.5665  141.8549  168.5375 C.ar    1  UNL1        0.0014
     13 C         140.3367  142.7332  167.3434 C.ar    1  UNL1        0.0160
     14 C         140.9795  142.3974  166.0305 C.ar    1  UNL1        0.0658
     15 C         141.8522  141.1831  165.9115 C.ar    1  UNL1        0.0941
     16 N         142.4951  140.8472  164.5986 N.ar    1  UNL1       -0.2484
     17 C         144.0106  139.2972  163.1666 C.3     1  UNL1        0.0517
     18 C         144.1084  140.3384  162.0913 C.3     1  UNL1        0.0480
     19 O         146.1136  141.4816  163.2839 O.co2   1  UNL1       -0.5492
     20 C         145.0005  141.5295  162.2796 C.2     1  UNL1        0.0507
     21 O         144.7794  142.7686  161.4636 O.co2   1  UNL1       -0.5492
     22 C         140.0605  145.9107  161.2543 C.3     1  UNL1        0.0769
     23 C         140.5836  145.5005  159.9097 C.3     1  UNL1        0.0437
     24 C         140.6405  144.0482  159.5382 C.ar    1  UNL1       -0.0206
     25 C         141.9671  143.3676  159.3741 C.ar    1  UNL1       -0.0011
     26 C         142.0241  141.9154  159.0027 C.ar    1  UNL1        0.0366
     27 C         140.7545  141.1440  158.7954 C.ar    1  UNL1        0.1385
     28 C         139.4280  141.8247  158.9595 C.ar    1  UNL1        0.0366
     29 C         139.3710  143.2768  159.3309 C.ar    1  UNL1       -0.0011
     30 O         140.8115  139.6918  158.4239 O.3     1  UNL1       -0.4754
     31 C         141.6797  138.7511  159.2058 C.3     1  UNL1        0.2068
     32 C         141.3267  138.4067  160.6223 C.3     1  UNL1        0.0646
     33 C         139.8879  138.3364  161.0408 C.3     1  UNL1        0.0759
     34 N         139.5029  138.6460  162.4572 N.3     1  UNL1       -0.2726
     35 C         138.5307  139.7742  162.6355 C.3     1  UNL1        0.0721
     36 C         137.9564  140.3215  163.9087 C.3     1  UNL1        0.0173
     37 C         138.2126  139.8756  165.3178 C.3     1  UNL1        0.0015
     38 C         139.1062  138.7725  165.8018 C.3     1  UNL1        0.0015
     39 C         139.9645  137.8426  164.9963 C.3     1  UNL1        0.0173
     40 C         140.1410  137.7864  163.5078 C.3     1  UNL1        0.0721
@<TRIPOS>UNITY_ATOM_ATTR
19 1
charge -1
@<TRIPOS>BOND
     1    19    20   ar
     2    20    21   ar
     3    20    18    1
     4    18    17    1
     5    17     7    1
     6     7     8   ar
     7     8     9   ar
     8     9    10   ar
     9    10    11   ar
    10    11    12   ar
    11    12    13   ar
    12    13    14   ar
    13    14     1    1
    14     1     2    1
    15     2     3    1
    16     3     4    1
    17     4    22    1
    18    22    23    1
    19    23    24    1
    20    24    25   ar
    21    25    26   ar
    22    26    27   ar
    23    27    30    1
    24    30    31    1
    25    31    32    1
    26    32    33    1
    27    33    34    1
    28    34    35    1
    29    35    36    1
    30    36    37    1
    31    37    38    1
    32    38    39    1
    33    39    40    1
    34    27    28   ar
    35    28    29   ar
    36     4     5    1
    37     5     6    1
    38    14    15   ar
    39    15    16   ar
    40    16     7   ar
    41    15    10   ar
    42     6     1    1
    43    29    24   ar
    44    40    34    1
@<TRIPOS>MOLECULE
*****
 40 44 0 0 0
SMALL
GASTEIGER

@<TRIPOS>ATOM
      1 N         140.7200  143.1503  164.8610 N.pl3   1  UNL1       -0.3035
      2 C         141.8343  144.0024  164.3297 C.3     1  UNL1        0.1082
      3 C         141.5776  144.9528  163.1979 C.3     1  UNL1        0.0938
      4 N         140.2066  145.0510  162.5974 N.3     1  UNL1       -0.2695
      5 C         139.0923  144.1989  163.1287 C.3     1  UNL1        0.0938
      6 C         139.3490  143.2486  164.2604 C.3     1  UNL1        0.1082
      7 C         143.4064  139.5928  164.2464 C.ar    1  UNL1        0.0594
      8 C         143.6631  138.6425  165.3781 C.ar    1  UNL1        0.0147
      9 C         143.0243  138.8779  166.7148 C.ar    1  UNL1        0.0027
     10 C         142.1289  140.0637  166.9196 C.ar    1  UNL1        0.0189
     11 C         141.4901  140.2991  168.2563 C.ar    1  UNL1        0.0016
     12 C         140.5947  141.4849  168.4611 C.ar    1  UNL1        0.0014
     13 C         140.3379  142.4354  167.3293 C.ar    1  UNL1        0.0160
     14 C         140.9767  142.1999  165.9927 C.ar    1  UNL1        0.0658
     15 C         141.8722  141.0140  165.7879 C.ar    1  UNL1        0.0941
     16 N         142.5110  140.7786  164.4513 N.ar    1  UNL1       -0.2484
     17 C         144.0452  139.3574  162.9098 C.3     1  UNL1        0.0517
     18 C         143.6820  138.1424  162.1086 C.3     1  UNL1        0.0480
     19 O         144.2774  139.3597  159.8919 O.co2   1  UNL1       -0.5492
     20 C         143.6142  138.2235  160.6123 C.2     1  UNL1        0.0507
     21 O         142.8830  137.1682  159.8364 O.co2   1  UNL1       -0.5492
     22 C         139.9499  146.0014  161.4657 C.3     1  UNL1        0.0769
     23 C         140.5117  145.7159  160.1045 C.3     1  UNL1        0.0437
     24 C         140.6580  144.2985  159.6356 C.ar    1  UNL1       -0.0206
     25 C         139.5254  143.6250  158.9188 C.ar    1  UNL1       -0.0011
     26 C         139.6716  142.2077  158.4500 C.ar    1  UNL1        0.0366
     27 C         140.9503  141.4639  158.6980 C.ar    1  UNL1        0.1385
     28 C         142.0828  142.1373  159.4148 C.ar    1  UNL1        0.0366
     29 C         141.9367  143.5546  159.8837 C.ar    1  UNL1       -0.0011
     30 O         141.0966  140.0465  158.2292 O.3     1  UNL1       -0.4754
     31 C         139.9373  139.0999  158.3298 C.3     1  UNL1        0.2068
     32 C         139.5117  138.5750  159.6689 C.3     1  UNL1        0.0646
     33 C         139.1664  139.5293  160.7733 C.3     1  UNL1        0.0759
     34 N         139.2708  139.0903  162.2039 N.3     1  UNL1       -0.2726
     35 C         140.1800  137.9257  162.4626 C.3     1  UNL1        0.0721
     36 C         140.4951  137.2571  163.7679 C.3     1  UNL1        0.0173
     37 C         139.9789  137.5881  165.1368 C.3     1  UNL1        0.0015
     38 C         139.0200  138.6693  165.5385 C.3     1  UNL1        0.0015
     39 C         138.3405  139.6867  164.6706 C.3     1  UNL1        0.0173
     40 C         138.4522  139.8740  163.1866 C.3     1  UNL1        0.0721
@<TRIPOS>UNITY_ATOM_ATTR
19 1
charge -1
@<TRIPOS>BOND
     1    19    20   ar
     2    20    21   ar
     3    20    18    1
     4    18    17    1
     5    17     7    1
     6     7     8   ar
     7     8     9   ar
     8     9    10   ar
     9    10    11   ar
    10    11    12   ar
    11    12    13   ar
    12    13    14   ar
    13    14     1    1
    14     1     2    1
    15     2     3    1
    16     3     4    1
    17     4    22    1
    18    22    23    1
    19    23    24    1
    20    24    25   ar
    21    25    26   ar
    22    26    27   ar
    23    27    30    1
    24    30    31    1
    25    31    32    1
    26    32    33    1
    27    33    34    1
    28    34    35    1
    29    35    36    1
    30    36    37    1
    31    37    38    1
    32    38    39    1
    33    39    40    1
    34    27    28   ar
    35    28    29   ar
    36     4     5    1
    37     5     6    1
    38    14    15   ar
    39    15    16   ar
    40    16     7   ar
    41    15    10   ar
    42     6     1    1
    43    29    24   ar
    44    40    34    1
@<TRIPOS>MOLECULE
*****
 40 44 0 0 0
SMALL
GASTEIGER

@<TRIPOS>ATOM
      1 N         139.1594  139.6505  165.9891 N.pl3   1  UNL1       -0.3035
      2 C         138.3497  140.5426  165.0954 C.3     1  UNL1        0.1082
      3 C         137.9594  140.0760  163.7243 C.3     1  UNL1        0.0938
      4 N         138.3789  138.7173  163.2468 N.3     1  UNL1       -0.2695
      5 C         139.1886  137.8252  164.1404 C.3     1  UNL1        0.0938
      6 C         139.5788  138.2918  165.5115 C.3     1  UNL1        0.1082
      7 C         142.9651  141.9793  166.5748 C.ar    1  UNL1        0.0594
      8 C         143.3553  142.4459  167.9460 C.ar    1  UNL1        0.0147
      9 C         142.4770  142.1362  169.1218 C.ar    1  UNL1        0.0027
     10 C         141.2084  141.3599  168.9266 C.ar    1  UNL1        0.0189
     11 C         140.3301  141.0503  170.1024 C.ar    1  UNL1        0.0016
     12 C         139.0616  140.2740  169.9072 C.ar    1  UNL1        0.0014
     13 C         138.6713  139.8074  168.5360 C.ar    1  UNL1        0.0160
     14 C         139.5496  140.1171  167.3602 C.ar    1  UNL1        0.0658
     15 C         140.8182  140.8934  167.5555 C.ar    1  UNL1        0.0941
     16 N         141.6965  141.2031  166.3796 N.ar    1  UNL1       -0.2484
     17 C         143.8434  142.2890  165.3990 C.3     1  UNL1        0.0517
     18 C         143.9712  141.3011  164.2775 C.3     1  UNL1        0.0480
     19 O         144.1140  141.9347  161.7620 O.co2   1  UNL1       -0.5492
     20 C         144.7907  141.6413  163.0681 C.2     1  UNL1        0.0507
     21 O         146.2869  141.6881  163.1648 O.co2   1  UNL1       -0.5492
     22 C         137.9887  138.2507  161.8757 C.3     1  UNL1        0.0769
     23 C         137.5865  139.2483  160.8302 C.3     1  UNL1        0.0437
     24 C         138.6292  140.0905  160.1566 C.ar    1  UNL1       -0.0206
     25 C         138.2426  141.0068  159.0336 C.ar    1  UNL1       -0.0011
     26 C         139.2852  141.8489  158.3601 C.ar    1  UNL1        0.0366
     27 C         140.7144  141.7748  158.8095 C.ar    1  UNL1        0.1385
     28 C         141.1009  140.8585  159.9324 C.ar    1  UNL1        0.0366
     29 C         140.0583  140.0163  160.6060 C.ar    1  UNL1       -0.0011
     30 O         141.7571  142.6169  158.1359 O.3     1  UNL1       -0.4754
     31 C         142.4238  143.7297  158.8891 C.3     1  UNL1        0.2068
     32 C         141.6186  144.6038  159.8041 C.3     1  UNL1        0.0646
     33 C         141.7772  144.4807  161.2907 C.3     1  UNL1        0.0759
     34 N         140.5668  144.3329  162.1644 N.3     1  UNL1       -0.2726
     35 C         139.3664  143.7119  161.5137 C.3     1  UNL1        0.0721
     36 C         138.0196  143.4303  162.1113 C.3     1  UNL1        0.0173
     37 C         137.5407  143.7001  163.5069 C.3     1  UNL1        0.0015
     38 C         138.2903  144.3182  164.6497 C.3     1  UNL1        0.0015
     39 C         139.7039  144.8192  164.6793 C.3     1  UNL1        0.0173
     40 C         140.7170  144.8257  163.5731 C.3     1  UNL1        0.0721
@<TRIPOS>UNITY_ATOM_ATTR
19 1
charge -1
@<TRIPOS>BOND
     1    19    20   ar
     2    20    21   ar
     3    20    18    1
     4    18    17    1
     5    17     7    1
     6     7     8   ar
     7     8     9   ar
     8     9    10   ar
     9    10    11   ar
    10    11    12   ar
    11    12    13   ar
    12    13    14   ar
    13    14     1    1
    14     1     2    1
    15     2     3    1
    16     3     4    1
    17     4    22    1
    18    22    23    1
    19    23    24    1
    20    24    25   ar
    21    25    26   ar
    22    26    27   ar
    23    27    30    1
    24    30    31    1
    25    31    32    1
    26    32    33    1
    27    33    34    1
    28    34    35    1
    29    35    36    1
    30    36    37    1
    31    37    38    1
    32    38    39    1
    33    39    40    1
    34    27    28   ar
    35    28    29   ar
    36     4     5    1
    37     5     6    1
    38    14    15   ar
    39    15    16   ar
    40    16     7   ar
    41    15    10   ar
    42     6     1    1
    43    29    24   ar
    44    40    34    1
@<TRIPOS>MOLECULE
*****
 40 44 0 0 0
SMALL
GASTEIGER

@<TRIPOS>ATOM
      1 N         138.3900  140.4561  159.3936 N.pl3   1  UNL1       -0.3035
      2 C         139.2297  139.2145  159.3350 C.3     1  UNL1        0.1082
      3 C         139.4404  138.3926  160.5720 C.3     1  UNL1        0.0938
      4 N         138.8114  138.8122  161.8675 N.3     1  UNL1       -0.2695
      5 C         137.9717  140.0537  161.9261 C.3     1  UNL1        0.0938
      6 C         137.7610  140.8757  160.6892 C.3     1  UNL1        0.1082
      7 C         140.4865  144.4115  158.9364 C.ar    1  UNL1        0.0594
      8 C         140.2758  145.2335  157.6996 C.ar    1  UNL1        0.0147
      9 C         139.3662  144.7370  156.6150 C.ar    1  UNL1        0.0027
     10 C         138.6674  143.4185  156.7674 C.ar    1  UNL1        0.0189
     11 C         137.7578  142.9220  155.6829 C.ar    1  UNL1        0.0016
     12 C         137.0590  141.6035  155.8353 C.ar    1  UNL1        0.0014
     13 C         137.2697  140.7815  157.0722 C.ar    1  UNL1        0.0160
     14 C         138.1793  141.2780  158.1567 C.ar    1  UNL1        0.0658
     15 C         138.8781  142.5966  158.0043 C.ar    1  UNL1        0.0941
     16 N         139.7877  143.0931  159.0888 N.ar    1  UNL1       -0.2484
     17 C         141.3961  144.9080  160.0210 C.3     1  UNL1        0.0517
     18 C         141.0523  144.6605  161.4599 C.3     1  UNL1        0.0480
     19 O         139.5587  145.1451  163.5297 O.co2   1  UNL1       -0.5492
     20 C         139.9557  145.4467  162.1150 C.2     1  UNL1        0.0507
     21 O         139.2560  146.5347  161.3554 O.co2   1  UNL1       -0.5492
     22 C         139.0222  137.9902  163.1044 C.3     1  UNL1        0.0769
     23 C         140.2903  137.2081  163.2781 C.3     1  UNL1        0.0437
     24 C         141.5798  137.9222  163.5559 C.ar    1  UNL1       -0.0206
     25 C         142.0352  138.1249  164.9706 C.ar    1  UNL1       -0.0011
     26 C         143.3247  138.8390  165.2484 C.ar    1  UNL1        0.0366
     27 C         144.1589  139.3503  164.1115 C.ar    1  UNL1        0.1385
     28 C         143.7035  139.1476  162.6967 C.ar    1  UNL1        0.0366
     29 C         142.4140  138.4335  162.4189 C.ar    1  UNL1       -0.0011
     30 O         145.4485  140.0645  164.3892 O.3     1  UNL1       -0.4754
     31 C         145.6996  141.4179  163.7935 C.3     1  UNL1        0.2068
     32 C         145.2031  142.6488  164.4922 C.3     1  UNL1        0.0646
     33 C         143.8098  143.1439  164.2400 C.3     1  UNL1        0.0759
     34 N         142.6439  142.4735  164.9043 N.3     1  UNL1       -0.2726
     35 C         142.7453  142.3155  166.3924 C.3     1  UNL1        0.0721
     36 C         141.7585  141.6947  167.3364 C.3     1  UNL1        0.0173
     37 C         140.4268  141.0786  167.0253 C.3     1  UNL1        0.0015
     38 C         139.7528  140.9310  165.6934 C.3     1  UNL1        0.0015
     39 C         140.2441  141.3632  164.3436 C.3     1  UNL1        0.0173
     40 C         141.5308  142.0497  163.9925 C.3     1  UNL1        0.0721
@<TRIPOS>UNITY_ATOM_ATTR
19 1
charge -1
@<TRIPOS>BOND
     1    19    20   ar
     2    20    21   ar
     3    20    18    1
     4    18    17    1
     5    17     7    1
     6     7     8   ar
     7     8     9   ar
     8     9    10   ar
     9    10    11   ar
    10    11    12   ar
    11    12    13   ar
    12    13    14   ar
    13    14     1    1
    14     1     2    1
    15     2     3    1
    16     3     4    1
    17     4    22    1
    18    22    23    1
    19    23    24    1
    20    24    25   ar
    21    25    26   ar
    22    26    27   ar
    23    27    30    1
    24    30    31    1
    25    31    32    1
    26    32    33    1
    27    33    34    1
    28    34    35    1
    29    35    36    1
    30    36    37    1
    31    37    38    1
    32    38    39    1
    33    39    40    1
    34    27    28   ar
    35    28    29   ar
    36     4     5    1
    37     5     6    1
    38    14    15   ar
    39    15    16   ar
    40    16     7   ar
    41    15    10   ar
    42     6     1    1
    43    29    24   ar
    44    40    34    1
@<TRIPOS>MOLECULE
*****
 40 44 0 0 0
SMALL
GASTEIGER

@<TRIPOS>ATOM
      1 N         140.0952  143.9846  161.5321 N.pl3   1  UNL1       -0.3035
      2 C         141.0840  144.9629  160.9708 C.3     1  UNL1        0.1082
      3 C         141.2452  145.0979  159.4856 C.3     1  UNL1        0.0938
      4 N         140.4175  144.2545  158.5617 N.3     1  UNL1       -0.2695
      5 C         139.4286  143.2762  159.1229 C.3     1  UNL1        0.0938
      6 C         139.2675  143.1412  160.6081 C.3     1  UNL1        0.1082
      7 C         142.4290  140.8573  163.7734 C.ar    1  UNL1        0.0594
      8 C         142.2679  140.7224  165.2586 C.ar    1  UNL1        0.0147
      9 C         141.3288  141.6298  165.9967 C.ar    1  UNL1        0.0027
     10 C         140.5509  142.6721  165.2496 C.ar    1  UNL1        0.0189
     11 C         139.6118  143.5795  165.9877 C.ar    1  UNL1        0.0016
     12 C         138.8339  144.6219  165.2406 C.ar    1  UNL1        0.0014
     13 C         138.9950  144.7570  163.7553 C.ar    1  UNL1        0.0160
     14 C         139.9341  143.8496  163.0173 C.ar    1  UNL1        0.0658
     15 C         140.7120  142.8071  163.7644 C.ar    1  UNL1        0.0941
     16 N         141.6511  141.8997  163.0263 N.ar    1  UNL1       -0.2484
     17 C         143.3681  139.9499  163.0354 C.3     1  UNL1        0.0517
     18 C         144.5151  140.5276  162.2604 C.3     1  UNL1        0.0480
     19 O         146.0715  141.7954  163.9096 O.co2   1  UNL1       -0.5492
     20 C         145.1626  141.8015  162.7165 C.2     1  UNL1        0.0507
     21 O         144.9010  143.0814  161.9793 O.co2   1  UNL1       -0.5492
     22 C         140.5786  144.3895  157.0765 C.3     1  UNL1        0.0769
     23 C         141.6542  143.6225  156.3660 C.3     1  UNL1        0.0437
     24 C         142.0355  142.2514  156.8401 C.ar    1  UNL1       -0.0206
     25 C         143.3250  142.0447  157.5781 C.ar    1  UNL1       -0.0011
     26 C         143.7063  140.6737  158.0522 C.ar    1  UNL1        0.0366
     27 C         142.7982  139.5093  157.7883 C.ar    1  UNL1        0.1385
     28 C         141.5088  139.7160  157.0504 C.ar    1  UNL1        0.0366
     29 C         141.1274  141.0870  156.5763 C.ar    1  UNL1       -0.0011
     30 O         143.1796  138.1382  158.2624 O.3     1  UNL1       -0.4754
     31 C         142.6441  137.6188  159.5638 C.3     1  UNL1        0.2068
     32 C         141.8788  138.5299  160.4770 C.3     1  UNL1        0.0646
     33 C         140.4464  138.2307  160.8070 C.3     1  UNL1        0.0759
     34 N         139.9202  138.5085  162.1840 N.3     1  UNL1       -0.2726
     35 C         138.9275  139.6281  162.2877 C.3     1  UNL1        0.0721
     36 C         138.2257  140.1456  163.5083 C.3     1  UNL1        0.0173
     37 C         138.3433  139.6713  164.9264 C.3     1  UNL1        0.0015
     38 C         139.1917  138.5623  165.4743 C.3     1  UNL1        0.0015
     39 C         140.1322  137.6537  164.7394 C.3     1  UNL1        0.0173
     40 C         140.4563  137.6298  163.2750 C.3     1  UNL1        0.0721
@<TRIPOS>UNITY_ATOM_ATTR
19 1
charge -1
@<TRIPOS>BOND
     1    19    20   ar
     2    20    21   ar
     3    20    18    1
     4    18    17    1
     5    17     7    1
     6     7     8   ar
     7     8     9   ar
     8     9    10   ar
     9    10    11   ar
    10    11    12   ar
    11    12    13   ar
    12    13    14   ar
    13    14     1    1
    14     1     2    1
    15     2     3    1
    16     3     4    1
    17     4    22    1
    18    22    23    1
    19    23    24    1
    20    24    25   ar
    21    25    26   ar
    22    26    27   ar
    23    27    30    1
    24    30    31    1
    25    31    32    1
    26    32    33    1
    27    33    34    1
    28    34    35    1
    29    35    36    1
    30    36    37    1
    31    37    38    1
    32    38    39    1
    33    39    40    1
    34    27    28   ar
    35    28    29   ar
    36     4     5    1
    37     5     6    1
    38    14    15   ar
    39    15    16   ar
    40    16     7   ar
    41    15    10   ar
    42     6     1    1
    43    29    24   ar
    44    40    34    1
@<TRIPOS>MOLECULE
*****
 40 44 0 0 0
SMALL
GASTEIGER

@<TRIPOS>ATOM
      1 N         138.8726  139.7733  163.8494 N.pl3   1  UNL1       -0.3035
      2 C         138.2498  141.0426  163.3484 C.3     1  UNL1        0.1082
      3 C         137.7318  141.1200  161.9428 C.3     1  UNL1        0.0938
      4 N         137.8367  139.9281  161.0382 N.3     1  UNL1       -0.2695
      5 C         138.4595  138.6588  161.5391 C.3     1  UNL1        0.0938
      6 C         138.9774  138.5814  162.9447 C.3     1  UNL1        0.1082
      7 C         143.2798  139.2578  164.5979 C.ar    1  UNL1        0.0594
      8 C         143.7978  139.1804  166.0035 C.ar    1  UNL1        0.0147
      9 C         142.8467  139.2748  167.1596 C.ar    1  UNL1        0.0027
     10 C         141.3776  139.4466  166.9101 C.ar    1  UNL1        0.0189
     11 C         140.4266  139.5411  168.0662 C.ar    1  UNL1        0.0016
     12 C         138.9575  139.7129  167.8167 C.ar    1  UNL1        0.0014
     13 C         138.4395  139.7903  166.4110 C.ar    1  UNL1        0.0160
     14 C         139.3906  139.6959  165.2550 C.ar    1  UNL1        0.0658
     15 C         140.8597  139.5241  165.5045 C.ar    1  UNL1        0.0941
     16 N         141.8108  139.4296  164.3484 N.ar    1  UNL1       -0.2484
     17 C         144.2309  139.1634  163.4419 C.3     1  UNL1        0.0517
     18 C         143.7959  139.6020  162.0750 C.3     1  UNL1        0.0480
     19 O         142.2016  137.6202  161.5452 O.co2   1  UNL1       -0.5492
     20 C         143.2499  138.5980  161.1035 C.2     1  UNL1        0.0507
     21 O         143.7521  138.5718  159.6903 O.co2   1  UNL1       -0.5492
     22 C         137.3187  140.0056  159.6326 C.3     1  UNL1        0.0769
     23 C         138.0295  140.8498  158.6168 C.3     1  UNL1        0.0437
     24 C         139.2874  141.5755  158.9926 C.ar    1  UNL1       -0.0206
     25 C         140.5871  140.8311  159.0734 C.ar    1  UNL1       -0.0011
     26 C         141.8449  141.5567  159.4493 C.ar    1  UNL1        0.0366
     27 C         141.8031  143.0268  159.7443 C.ar    1  UNL1        0.1385
     28 C         140.5033  143.7712  159.6636 C.ar    1  UNL1        0.0366
     29 C         139.2455  143.0456  159.2877 C.ar    1  UNL1       -0.0011
     30 O         143.0609  143.7525  160.1202 O.3     1  UNL1       -0.4754
     31 C         144.1337  143.0433  160.8925 C.3     1  UNL1        0.2068
     32 C         144.4783  143.4912  162.2819 C.3     1  UNL1        0.0646
     33 C         143.7200  144.6195  162.9159 C.3     1  UNL1        0.0759
     34 N         142.4711  144.3379  163.6976 N.3     1  UNL1       -0.2726
     35 C         142.6173  143.3649  164.8297 C.3     1  UNL1        0.0721
     36 C         141.5696  142.8803  165.7876 C.3     1  UNL1        0.0173
     37 C         140.1170  143.2490  165.8500 C.3     1  UNL1        0.0015
     38 C         139.3533  144.1935  164.9699 C.3     1  UNL1        0.0015
     39 C         139.8535  145.0025  163.8100 C.3     1  UNL1        0.0173
     40 C         141.2411  145.0668  163.2438 C.3     1  UNL1        0.0721
@<TRIPOS>UNITY_ATOM_ATTR
19 1
charge -1
@<TRIPOS>BOND
     1    19    20   ar
     2    20    21   ar
     3    20    18    1
     4    18    17    1
     5    17     7    1
     6     7     8   ar
     7     8     9   ar
     8     9    10   ar
     9    10    11   ar
    10    11    12   ar
    11    12    13   ar
    12    13    14   ar
    13    14     1    1
    14     1     2    1
    15     2     3    1
    16     3     4    1
    17     4    22    1
    18    22    23    1
    19    23    24    1
    20    24    25   ar
    21    25    26   ar
    22    26    27   ar
    23    27    30    1
    24    30    31    1
    25    31    32    1
    26    32    33    1
    27    33    34    1
    28    34    35    1
    29    35    36    1
    30    36    37    1
    31    37    38    1
    32    38    39    1
    33    39    40    1
    34    27    28   ar
    35    28    29   ar
    36     4     5    1
    37     5     6    1
    38    14    15   ar
    39    15    16   ar
    40    16     7   ar
    41    15    10   ar
    42     6     1    1
    43    29    24   ar
    44    40    34    1
