@<TRIPOS>MOLECULE
*****
 57 63 0 0 0
SMALL
GASTEIGER

@<TRIPOS>ATOM
      1 C         139.0394  140.0471  166.3439 C.ar    1  UNL1        0.1472
      2 C         138.5520  138.8071  167.0331 C.ar    1  UNL1        0.0376
      3 C         138.2839  137.5635  166.2384 C.ar    1  UNL1        0.0031
      4 C         138.5031  137.5599  164.7545 C.ar    1  UNL1        0.0002
      5 C         138.9904  138.7998  164.0653 C.ar    1  UNL1        0.0028
      6 C         139.2585  140.0434  164.8600 C.ar    1  UNL1        0.0375
      7 C         139.2095  138.7963  162.5814 C.ar    1  UNL1       -0.0026
      8 C         138.2460  139.5088  161.6792 C.ar    1  UNL1       -0.0005
      9 C         138.4651  139.5053  160.1953 C.ar    1  UNL1       -0.0029
     10 C         139.6478  138.7891  159.6136 C.ar    1  UNL1       -0.0064
     11 C         140.6113  138.0766  160.5158 C.ar    1  UNL1       -0.0058
     12 C         140.3922  138.0801  161.9996 C.ar    1  UNL1       -0.0064
     13 C         139.8670  138.7855  158.1297 C.3     1  UNL1        0.0992
     14 N         141.2561  138.6640  157.5770 N.3     1  UNL1       -0.2666
     15 C         142.1866  139.8397  157.6219 C.3     1  UNL1        0.0882
     16 C         143.5758  139.7182  157.0692 C.3     1  UNL1        0.0702
     17 C         144.5063  140.8939  157.1141 C.3     1  UNL1        0.0186
     18 N         144.0345  138.4210  156.4718 N.3     1  UNL1       -0.2974
     19 C         143.1040  137.2454  156.4269 C.3     1  UNL1        0.0702
     20 C         143.5627  135.9482  155.8294 C.3     1  UNL1        0.0186
     21 C         141.7148  137.3669  156.9796 C.3     1  UNL1        0.0882
     22 H         144.8553  138.1269  157.0012 H       1  UNL1        0.1232
     23 C         141.3557  137.3676  162.9018 C.3     1  UNL1        0.0993
     24 N         142.4656  138.1285  163.5644 N.3     1  UNL1       -0.2646
     25 C         142.5004  138.2551  165.0587 C.3     1  UNL1        0.1049
     26 C         143.6103  139.0160  165.7213 C.3     1  UNL1        0.1595
     27 O         144.6855  139.6503  164.8897 O.3     1  UNL1       -0.3508
     28 C         144.6508  139.5238  163.3954 C.3     1  UNL1        0.1595
     29 C         143.5408  138.7628  162.7328 C.3     1  UNL1        0.1049
     30 O         139.3075  141.2907  167.1386 O.3     1  UNL1       -0.4360
     31 C         141.7756  142.0994  167.2083 C.ar    1  UNL1        0.1090
     32 C         143.0721  142.2524  167.9469 C.ar    1  UNL1        0.0405
     33 C         143.1971  141.7497  169.3546 C.ar    1  UNL1        0.1596
     34 F         144.4936  141.9027  170.0933 F       1  UNL1       -0.2025
     35 C         142.0256  141.0940  170.0236 C.ar    1  UNL1        0.1316
     36 N         140.7291  140.9410  169.2850 N.ar    1  UNL1       -0.2073
     37 C         140.6041  141.4437  167.8773 C.ar    1  UNL1        0.2341
     38 N         140.4172  143.3423  165.3752 N.am    1  UNL1       -0.3024
     39 C         141.6505  142.6021  165.8005 C.2     1  UNL1        0.2504
     40 O         142.7588  142.3645  164.8181 O.2     1  UNL1       -0.2700
     41 H         139.6898  143.4983  166.0201 H       1  UNL1        0.1497
     42 C         140.0420  144.8503  161.1521 C.3     1  UNL1        0.0720
     43 C         139.5445  143.4803  161.5062 C.3     1  UNL1        0.0213
     44 C         139.6695  142.9777  162.9139 C.3     1  UNL1        0.0213
     45 C         140.2922  143.8451  163.9675 C.3     1  UNL1        0.0720
     46 C         140.7897  145.2151  163.6133 C.3     1  UNL1        0.0213
     47 C         140.6647  145.7177  162.2056 C.3     1  UNL1        0.0213
     48 C         141.0550  145.1806  158.7825 C.2     1  UNL1        0.2697
     49 O         142.3181  144.5056  159.2284 O.2     1  UNL1       -0.2679
     50 N         139.9170  145.3530  159.7443 N.am    1  UNL1       -0.3008
     51 H         139.0880  145.7961  159.4517 H       1  UNL1        0.1497
     52 C         139.3629  147.7830  154.5111 C.3     1  UNL1        0.0527
     53 C         140.1522  146.8795  155.4114 C.ar    1  UNL1        0.0666
     54 C         141.3230  146.0342  155.0055 C.ar    1  UNL1        0.0517
     55 S         141.8038  145.2949  156.2190 S.2     1  UNL1       -0.0618
     56 C         140.9300  145.6834  157.3747 C.ar    1  UNL1        0.1636
     57 N         139.9093  146.6626  156.8756 N.ar    1  UNL1       -0.2381
@<TRIPOS>BOND
     1    52    53    1
     2    53    54   ar
     3    54    55   ar
     4    55    56   ar
     5    56    48    1
     6    48    49    2
     7    48    50   am
     8    42    50    1
     9    42    43    1
    10    43    44    1
    11    44    45    1
    12    45    38    1
    13    38    39   am
    14    39    40    2
    15    39    31    1
    16    31    32   ar
    17    32    33   ar
    18    33    34    1
    19    33    35   ar
    20    35    36   ar
    21    36    37   ar
    22    37    30    1
    23    30     1    1
    24     1     2   ar
    25     2     3   ar
    26     3     4   ar
    27     4     5   ar
    28     5     7    1
    29     7     8   ar
    30     8     9   ar
    31     9    10   ar
    32    10    13    1
    33    13    14    1
    34    14    15    1
    35    15    16    1
    36    16    17    1
    37    16    18    1
    38    18    19    1
    39    19    20    1
    40    19    21    1
    41    10    11   ar
    42    11    12   ar
    43    12    23    1
    44    23    24    1
    45    24    25    1
    46    25    26    1
    47    26    27    1
    48    27    28    1
    49    28    29    1
    50     5     6   ar
    51    45    46    1
    52    46    47    1
    53    56    57   ar
    54    57    53   ar
    55    47    42    1
    56    37    31   ar
    57     6     1   ar
    58    12     7   ar
    59    29    24    1
    60    21    14    1
    61    50    51    1
    62    38    41    1
    63    18    22    1
@<TRIPOS>MOLECULE
*****
 57 63 0 0 0
SMALL
GASTEIGER

@<TRIPOS>ATOM
      1 C         141.8296  139.0595  165.7795 C.ar    1  UNL1        0.1472
      2 C         143.1598  138.6842  166.3624 C.ar    1  UNL1        0.0376
      3 C         144.3747  138.6290  165.4844 C.ar    1  UNL1        0.0031
      4 C         144.2594  138.9490  164.0235 C.ar    1  UNL1        0.0002
      5 C         142.9293  139.3242  163.4406 C.ar    1  UNL1        0.0028
      6 C         141.7144  139.3795  164.3186 C.ar    1  UNL1        0.0375
      7 C         142.8140  139.6442  161.9796 C.ar    1  UNL1       -0.0026
      8 C         141.7372  139.0043  161.1543 C.ar    1  UNL1       -0.0005
      9 C         141.6219  139.3242  159.6934 C.ar    1  UNL1       -0.0029
     10 C         142.5834  140.2841  159.0578 C.ar    1  UNL1       -0.0064
     11 C         143.6602  140.9241  159.8830 C.ar    1  UNL1       -0.0058
     12 C         143.7755  140.6041  161.3439 C.ar    1  UNL1       -0.0064
     13 C         142.4681  140.6041  157.5968 C.3     1  UNL1        0.0992
     14 N         143.2956  139.8524  156.5968 N.3     1  UNL1       -0.2666
     15 C         143.2394  138.3541  156.5517 C.3     1  UNL1        0.0882
     16 C         144.0670  137.6023  155.5517 C.3     1  UNL1        0.0702
     17 C         144.0108  136.1040  155.5065 C.3     1  UNL1        0.0186
     18 N         144.9507  138.3488  154.5968 N.3     1  UNL1       -0.2974
     19 C         145.0069  139.8471  154.6419 C.3     1  UNL1        0.0702
     20 C         145.8907  140.5936  153.6871 C.3     1  UNL1        0.0186
     21 C         144.1794  140.5988  155.6419 C.3     1  UNL1        0.0882
     22 H         144.6498  138.0937  153.6562 H       1  UNL1        0.1232
     23 C         144.8523  141.2440  162.1691 C.3     1  UNL1        0.0993
     24 N         144.5546  142.4836  162.9596 N.3     1  UNL1       -0.2646
     25 C         144.1178  143.7346  162.2565 C.3     1  UNL1        0.1049
     26 C         143.8202  144.9742  163.0469 C.3     1  UNL1        0.1595
     27 O         143.9592  144.9628  164.5404 O.3     1  UNL1       -0.3508
     28 C         144.3960  143.7119  165.2435 C.3     1  UNL1        0.1595
     29 C         144.6936  142.4722  164.4531 C.3     1  UNL1        0.1049
     30 O         140.6146  139.1147  166.6575 O.3     1  UNL1       -0.4360
     31 C         140.2239  141.5222  167.5528 C.ar    1  UNL1        0.1090
     32 C         140.1696  142.4893  168.6980 C.ar    1  UNL1        0.0405
     33 C         140.4517  142.0163  170.0932 C.ar    1  UNL1        0.1596
     34 F         140.3974  142.9834  171.2385 F       1  UNL1       -0.2025
     35 C         140.7881  140.5760  170.3432 C.ar    1  UNL1        0.1316
     36 N         140.8424  139.6088  169.1979 N.ar    1  UNL1       -0.2073
     37 C         140.5604  140.0819  167.8028 C.ar    1  UNL1        0.2341
     38 N         140.9005  142.9231  165.4720 N.am    1  UNL1       -0.3024
     39 C         139.9418  141.9953  166.1576 C.2     1  UNL1        0.2504
     40 O         138.7011  141.5404  165.4479 O.2     1  UNL1       -0.2700
     41 H         141.7148  143.2216  165.9378 H       1  UNL1        0.1497
     42 C         140.0542  144.3422  161.2863 C.3     1  UNL1        0.0720
     43 C         140.5232  142.9369  161.5214 C.3     1  UNL1        0.0213
     44 C         140.8053  142.4639  162.9166 C.3     1  UNL1        0.0213
     45 C         140.6184  143.3962  164.0767 C.3     1  UNL1        0.0720
     46 C         140.1494  144.8014  163.8417 C.3     1  UNL1        0.0213
     47 C         139.8673  145.2744  162.4465 C.3     1  UNL1        0.0213
     48 C         140.9068  145.1152  158.9570 C.2     1  UNL1        0.2697
     49 O         142.3236  144.9421  159.4182 O.2     1  UNL1       -0.2679
     50 N         139.7721  144.8153  159.8911 N.am    1  UNL1       -0.3008
     51 H         138.8422  144.9289  159.5884 H       1  UNL1        0.1497
     52 C         139.0897  147.9412  154.8837 C.3     1  UNL1        0.0527
     53 C         139.7894  146.8873  155.6894 C.ar    1  UNL1        0.0666
     54 C         140.5918  145.7451  155.1400 C.ar    1  UNL1        0.0517
     55 S         141.1080  144.9423  156.2972 S.2     1  UNL1       -0.0618
     56 C         140.6247  145.5883  157.5617 C.ar    1  UNL1        0.1636
     57 N         139.8098  146.7903  157.1862 N.ar    1  UNL1       -0.2381
@<TRIPOS>BOND
     1    52    53    1
     2    53    54   ar
     3    54    55   ar
     4    55    56   ar
     5    56    48    1
     6    48    49    2
     7    48    50   am
     8    42    50    1
     9    42    43    1
    10    43    44    1
    11    44    45    1
    12    45    38    1
    13    38    39   am
    14    39    40    2
    15    39    31    1
    16    31    32   ar
    17    32    33   ar
    18    33    34    1
    19    33    35   ar
    20    35    36   ar
    21    36    37   ar
    22    37    30    1
    23    30     1    1
    24     1     2   ar
    25     2     3   ar
    26     3     4   ar
    27     4     5   ar
    28     5     7    1
    29     7     8   ar
    30     8     9   ar
    31     9    10   ar
    32    10    13    1
    33    13    14    1
    34    14    15    1
    35    15    16    1
    36    16    17    1
    37    16    18    1
    38    18    19    1
    39    19    20    1
    40    19    21    1
    41    10    11   ar
    42    11    12   ar
    43    12    23    1
    44    23    24    1
    45    24    25    1
    46    25    26    1
    47    26    27    1
    48    27    28    1
    49    28    29    1
    50     5     6   ar
    51    45    46    1
    52    46    47    1
    53    56    57   ar
    54    57    53   ar
    55    47    42    1
    56    37    31   ar
    57     6     1   ar
    58    12     7   ar
    59    29    24    1
    60    21    14    1
    61    50    51    1
    62    38    41    1
    63    18    22    1
@<TRIPOS>MOLECULE
*****
 57 63 0 0 0
SMALL
GASTEIGER

@<TRIPOS>ATOM
      1 C         142.2939  139.2136  165.9872 C.ar    1  UNL1        0.1472
      2 C         143.4698  138.4982  166.5835 C.ar    1  UNL1        0.0376
      3 C         144.7732  138.4505  165.8428 C.ar    1  UNL1        0.0031
      4 C         144.9008  139.1182  164.5056 C.ar    1  UNL1        0.0002
      5 C         143.7249  139.8336  163.9093 C.ar    1  UNL1        0.0028
      6 C         142.4215  139.8813  164.6501 C.ar    1  UNL1        0.0375
      7 C         143.8525  140.5013  162.5721 C.ar    1  UNL1       -0.0026
      8 C         144.5039  141.8483  162.4655 C.ar    1  UNL1       -0.0005
      9 C         144.6315  142.5160  161.1284 C.ar    1  UNL1       -0.0029
     10 C         144.1077  141.8367  159.8979 C.ar    1  UNL1       -0.0064
     11 C         143.4563  140.4897  160.0045 C.ar    1  UNL1       -0.0058
     12 C         143.3287  139.8220  161.3416 C.ar    1  UNL1       -0.0064
     13 C         144.2353  142.5044  158.5608 C.3     1  UNL1        0.0992
     14 N         145.0111  141.8406  157.4620 N.3     1  UNL1       -0.2666
     15 C         146.3524  142.3787  157.0600 C.3     1  UNL1        0.0882
     16 C         147.1282  141.7148  155.9612 C.3     1  UNL1        0.0702
     17 C         148.4694  142.2529  155.5593 C.3     1  UNL1        0.0186
     18 N         146.5628  140.5128  155.2643 N.3     1  UNL1       -0.2974
     19 C         145.2215  139.9748  155.6663 C.3     1  UNL1        0.0702
     20 C         144.6561  138.7728  154.9694 C.3     1  UNL1        0.0186
     21 C         144.4457  140.6387  156.7651 C.3     1  UNL1        0.0882
     22 H         147.2341  139.7556  155.3919 H       1  UNL1        0.1232
     23 C         142.6774  138.4750  161.4482 C.3     1  UNL1        0.0993
     24 N         141.1878  138.3714  161.5904 N.3     1  UNL1       -0.2646
     25 C         140.2915  138.9584  160.5405 C.3     1  UNL1        0.1049
     26 C         138.8018  138.8548  160.6827 C.3     1  UNL1        0.1595
     27 O         138.2084  138.1642  161.8747 O.3     1  UNL1       -0.3508
     28 C         139.1047  137.5773  162.9246 C.3     1  UNL1        0.1595
     29 C         140.5944  137.6808  162.7824 C.3     1  UNL1        0.1049
     30 O         140.9904  139.2613  166.7279 O.3     1  UNL1       -0.4360
     31 C         140.3057  141.6245  167.5624 C.ar    1  UNL1        0.1090
     32 C         140.1163  142.6015  168.6848 C.ar    1  UNL1        0.0405
     33 C         140.4221  142.1921  170.0950 C.ar    1  UNL1        0.1596
     34 F         140.2326  143.1690  171.2174 F       1  UNL1       -0.2025
     35 C         140.9174  140.8058  170.3829 C.ar    1  UNL1        0.1316
     36 N         141.1068  139.8289  169.2606 N.ar    1  UNL1       -0.2073
     37 C         140.8010  140.2382  167.8504 C.ar    1  UNL1        0.2341
     38 N         140.8693  143.0399  165.4579 N.am    1  UNL1       -0.3024
     39 C         139.9999  142.0339  166.1521 C.2     1  UNL1        0.2504
     40 O         138.8246  141.4372  165.4361 O.2     1  UNL1       -0.2700
     41 H         141.6407  143.4315  165.9278 H       1  UNL1        0.1497
     42 C         139.9518  144.2679  161.2270 C.3     1  UNL1        0.0720
     43 C         139.7461  145.2393  162.3513 C.3     1  UNL1        0.0213
     44 C         140.0519  144.8300  163.7615 C.3     1  UNL1        0.0213
     45 C         140.5635  143.4492  164.0475 C.3     1  UNL1        0.0720
     46 C         140.7692  142.4778  162.9233 C.3     1  UNL1        0.0213
     47 C         140.4634  142.8872  161.5130 C.3     1  UNL1        0.0213
     48 C         140.7494  145.1483  158.9164 C.2     1  UNL1        0.2697
     49 O         142.1587  145.2100  159.4264 O.2     1  UNL1       -0.2679
     50 N         139.6460  144.6773  159.8167 N.am    1  UNL1       -0.3008
     51 H         138.7210  144.6368  159.4819 H       1  UNL1        0.1497
     52 C         139.0971  147.9227  154.7388 C.3     1  UNL1        0.0527
     53 C         139.6841  146.8329  155.5858 C.ar    1  UNL1        0.0666
     54 C         140.2620  145.5420  155.0858 C.ar    1  UNL1        0.0517
     55 S         140.7314  144.7539  156.2727 S.2     1  UNL1       -0.0618
     56 C         140.4436  145.5576  157.5061 C.ar    1  UNL1        0.1636
     57 N         139.7964  146.8425  157.0816 N.ar    1  UNL1       -0.2381
@<TRIPOS>BOND
     1    52    53    1
     2    53    54   ar
     3    54    55   ar
     4    55    56   ar
     5    56    48    1
     6    48    49    2
     7    48    50   am
     8    42    50    1
     9    42    43    1
    10    43    44    1
    11    44    45    1
    12    45    38    1
    13    38    39   am
    14    39    40    2
    15    39    31    1
    16    31    32   ar
    17    32    33   ar
    18    33    34    1
    19    33    35   ar
    20    35    36   ar
    21    36    37   ar
    22    37    30    1
    23    30     1    1
    24     1     2   ar
    25     2     3   ar
    26     3     4   ar
    27     4     5   ar
    28     5     7    1
    29     7     8   ar
    30     8     9   ar
    31     9    10   ar
    32    10    13    1
    33    13    14    1
    34    14    15    1
    35    15    16    1
    36    16    17    1
    37    16    18    1
    38    18    19    1
    39    19    20    1
    40    19    21    1
    41    10    11   ar
    42    11    12   ar
    43    12    23    1
    44    23    24    1
    45    24    25    1
    46    25    26    1
    47    26    27    1
    48    27    28    1
    49    28    29    1
    50     5     6   ar
    51    45    46    1
    52    46    47    1
    53    56    57   ar
    54    57    53   ar
    55    47    42    1
    56    37    31   ar
    57     6     1   ar
    58    12     7   ar
    59    29    24    1
    60    21    14    1
    61    50    51    1
    62    38    41    1
    63    18    22    1
@<TRIPOS>MOLECULE
*****
 57 63 0 0 0
SMALL
GASTEIGER

@<TRIPOS>ATOM
      1 C         143.3766  141.6562  165.4242 C.ar    1  UNL1        0.1472
      2 C         144.0061  142.8339  166.1074 C.ar    1  UNL1        0.0376
      3 C         144.3166  144.0763  165.3262 C.ar    1  UNL1        0.0031
      4 C         143.9977  144.1408  163.8619 C.ar    1  UNL1        0.0002
      5 C         143.3683  142.9631  163.1788 C.ar    1  UNL1        0.0028
      6 C         143.0577  141.7208  163.9599 C.ar    1  UNL1        0.0375
      7 C         143.0493  143.0276  161.7144 C.ar    1  UNL1       -0.0026
      8 C         143.7592  142.1226  160.7517 C.ar    1  UNL1       -0.0005
      9 C         143.4404  142.1871  159.2874 C.ar    1  UNL1       -0.0029
     10 C         142.4116  143.1567  158.7859 C.ar    1  UNL1       -0.0064
     11 C         141.7017  144.0617  159.7487 C.ar    1  UNL1       -0.0058
     12 C         142.0206  143.9972  161.2130 C.ar    1  UNL1       -0.0064
     13 C         142.0927  143.2212  157.3216 C.3     1  UNL1        0.0992
     14 N         140.6774  143.4304  156.8708 N.3     1  UNL1       -0.2666
     15 C         140.2755  144.7308  156.2403 C.3     1  UNL1        0.0882
     16 C         138.8602  144.9399  155.7895 C.3     1  UNL1        0.0702
     17 C         138.4583  146.2403  155.1591 C.3     1  UNL1        0.0186
     18 N         137.8468  143.8486  155.9692 N.3     1  UNL1       -0.2974
     19 C         138.2487  142.5483  156.5996 C.3     1  UNL1        0.0702
     20 C         137.2353  141.4570  156.7793 C.3     1  UNL1        0.0186
     21 C         139.6640  142.3391  157.0504 C.3     1  UNL1        0.0882
     22 H         137.4854  143.6268  155.0415 H       1  UNL1        0.1232
     23 C         141.3107  144.9023  162.1757 C.3     1  UNL1        0.0993
     24 N         140.1524  144.3852  162.9763 N.3     1  UNL1       -0.2646
     25 C         140.2427  144.3232  164.4723 C.3     1  UNL1        0.1049
     26 C         139.0844  143.8061  165.2728 C.3     1  UNL1        0.1595
     27 O         137.8357  143.3510  164.5774 O.3     1  UNL1       -0.3508
     28 C         137.7453  143.4130  163.0814 C.3     1  UNL1        0.1595
     29 C         138.9037  143.9301  162.2808 C.3     1  UNL1        0.1049
     30 O         143.0661  140.4138  166.2053 O.3     1  UNL1       -0.4360
     31 C         140.5426  139.9914  166.6569 C.ar    1  UNL1        0.1090
     32 C         139.3776  139.9711  167.6015 C.ar    1  UNL1        0.0405
     33 C         139.5710  140.3528  169.0391 C.ar    1  UNL1        0.1596
     34 F         138.4059  140.3324  169.9838 F       1  UNL1       -0.2025
     35 C         140.9294  140.7548  169.5322 C.ar    1  UNL1        0.1316
     36 N         142.0944  140.7752  168.5876 N.ar    1  UNL1       -0.2073
     37 C         141.9010  140.3935  167.1500 C.ar    1  UNL1        0.2341
     38 N         139.6107  140.5288  164.2920 N.am    1  UNL1       -0.3024
     39 C         140.3493  139.6097  165.2192 C.2     1  UNL1        0.2504
     40 O         140.8945  138.3089  164.7087 O.2     1  UNL1       -0.2700
     41 H         139.2529  141.3826  164.6270 H       1  UNL1        0.1497
     42 C         139.0308  139.3838  159.9789 C.3     1  UNL1        0.0720
     43 C         140.1598  140.2912  160.3687 C.3     1  UNL1        0.0213
     44 C         140.3531  140.6728  161.8064 C.3     1  UNL1        0.0213
     45 C         139.4174  140.1471  162.8542 C.3     1  UNL1        0.0720
     46 C         138.2884  139.2397  162.4645 C.3     1  UNL1        0.0213
     47 C         138.0951  138.8581  161.0268 C.3     1  UNL1        0.0213
     48 C         139.9532  138.3465  157.7827 C.2     1  UNL1        0.2697
     49 O         141.2623  138.0726  158.4619 O.2     1  UNL1       -0.2679
     50 N         138.8375  139.0021  158.5412 N.am    1  UNL1       -0.3008
     51 H         137.9783  139.1818  158.0954 H       1  UNL1        0.1497
     52 C         137.6923  137.2374  153.1418 C.3     1  UNL1        0.0527
     53 C         138.7206  137.4550  154.2118 C.ar    1  UNL1        0.0666
     54 C         140.2042  137.2998  154.0534 C.ar    1  UNL1        0.0517
     55 S         140.8465  137.6149  155.3719 S.2     1  UNL1       -0.0618
     56 C         139.7598  137.9648  156.3450 C.ar    1  UNL1        0.1636
     57 N         138.4460  137.8659  155.6280 N.ar    1  UNL1       -0.2381
@<TRIPOS>BOND
     1    52    53    1
     2    53    54   ar
     3    54    55   ar
     4    55    56   ar
     5    56    48    1
     6    48    49    2
     7    48    50   am
     8    42    50    1
     9    42    43    1
    10    43    44    1
    11    44    45    1
    12    45    38    1
    13    38    39   am
    14    39    40    2
    15    39    31    1
    16    31    32   ar
    17    32    33   ar
    18    33    34    1
    19    33    35   ar
    20    35    36   ar
    21    36    37   ar
    22    37    30    1
    23    30     1    1
    24     1     2   ar
    25     2     3   ar
    26     3     4   ar
    27     4     5   ar
    28     5     7    1
    29     7     8   ar
    30     8     9   ar
    31     9    10   ar
    32    10    13    1
    33    13    14    1
    34    14    15    1
    35    15    16    1
    36    16    17    1
    37    16    18    1
    38    18    19    1
    39    19    20    1
    40    19    21    1
    41    10    11   ar
    42    11    12   ar
    43    12    23    1
    44    23    24    1
    45    24    25    1
    46    25    26    1
    47    26    27    1
    48    27    28    1
    49    28    29    1
    50     5     6   ar
    51    45    46    1
    52    46    47    1
    53    56    57   ar
    54    57    53   ar
    55    47    42    1
    56    37    31   ar
    57     6     1   ar
    58    12     7   ar
    59    29    24    1
    60    21    14    1
    61    50    51    1
    62    38    41    1
    63    18    22    1
@<TRIPOS>MOLECULE
*****
 57 63 0 0 0
SMALL
GASTEIGER

@<TRIPOS>ATOM
      1 C         141.9005  139.1736  166.2972 C.ar    1  UNL1        0.1472
      2 C         143.1821  138.7765  166.9679 C.ar    1  UNL1        0.0376
      3 C         144.3858  138.4327  166.1416 C.ar    1  UNL1        0.0031
      4 C         144.3079  138.4860  164.6445 C.ar    1  UNL1        0.0002
      5 C         143.0264  138.8831  163.9738 C.ar    1  UNL1        0.0028
      6 C         141.8226  139.2269  164.8002 C.ar    1  UNL1        0.0375
      7 C         142.9485  138.9363  162.4767 C.ar    1  UNL1       -0.0026
      8 C         141.9655  138.0708  161.7456 C.ar    1  UNL1       -0.0005
      9 C         141.8876  138.1241  160.2486 C.ar    1  UNL1       -0.0029
     10 C         142.7927  139.0428  159.4828 C.ar    1  UNL1       -0.0064
     11 C         143.7757  139.9084  160.2139 C.ar    1  UNL1       -0.0058
     12 C         143.8536  139.8551  161.7109 C.ar    1  UNL1       -0.0064
     13 C         142.7148  139.0961  157.9857 C.3     1  UNL1        0.0992
     14 N         142.1344  137.9420  157.2233 N.3     1  UNL1       -0.2666
     15 C         140.7847  138.0699  156.5815 C.3     1  UNL1        0.0882
     16 C         140.2044  136.9157  155.8191 C.3     1  UNL1        0.0702
     17 C         138.8547  137.0436  155.1773 C.3     1  UNL1        0.0186
     18 N         140.9738  135.6337  155.6986 N.3     1  UNL1       -0.2974
     19 C         142.3235  135.5058  156.3405 C.3     1  UNL1        0.0702
     20 C         143.0929  134.2238  156.2200 C.3     1  UNL1        0.0186
     21 C         142.9038  136.6600  157.1028 C.3     1  UNL1        0.0882
     22 H         141.1042  135.4612  154.7018 H       1  UNL1        0.1232
     23 C         144.8366  140.7206  162.4420 C.3     1  UNL1        0.0993
     24 N         144.3980  142.0368  163.0123 N.3     1  UNL1       -0.2646
     25 C         144.4215  142.2565  164.4960 C.3     1  UNL1        0.1049
     26 C         143.9829  143.5727  165.0663 C.3     1  UNL1        0.1595
     27 O         143.5208  144.6692  164.1530 O.3     1  UNL1       -0.3508
     28 C         143.4973  144.4495  162.6694 C.3     1  UNL1        0.1595
     29 C         143.9359  143.1333  162.0990 C.3     1  UNL1        0.1049
     30 O         140.6967  139.5174  167.1235 O.3     1  UNL1       -0.4360
     31 C         140.1408  142.0545  167.1917 C.ar    1  UNL1        0.1090
     32 C         140.0908  143.3537  167.9396 C.ar    1  UNL1        0.0405
     33 C         140.5467  143.4152  169.3673 C.ar    1  UNL1        0.1596
     34 F         140.4967  144.7145  170.1153 F       1  UNL1       -0.2025
     35 C         141.0526  142.1775  170.0471 C.ar    1  UNL1        0.1316
     36 N         141.1027  140.8783  169.2991 N.ar    1  UNL1       -0.2073
     37 C         140.6467  140.8167  167.8715 C.ar    1  UNL1        0.2341
     38 N         140.4691  142.6950  164.6953 N.am    1  UNL1       -0.3024
     39 C         139.6849  141.9929  165.7639 C.2     1  UNL1        0.2504
     40 O         138.4448  141.2292  165.4049 O.2     1  UNL1       -0.2700
     41 H         141.2830  143.1963  164.9309 H       1  UNL1        0.1497
     42 C         139.1014  142.5103  160.4122 C.3     1  UNL1        0.0720
     43 C         140.2369  141.6463  160.8748 C.3     1  UNL1        0.0213
     44 C         140.6928  141.7079  162.3025 C.3     1  UNL1        0.0213
     45 C         140.0131  142.6335  163.2675 C.3     1  UNL1        0.0720
     46 C         138.8776  143.4974  162.8049 C.3     1  UNL1        0.0213
     47 C         138.4217  143.4358  161.3772 C.3     1  UNL1        0.0213
     48 C         137.9092  141.2417  158.4836 C.2     1  UNL1        0.2697
     49 O         137.6287  140.0961  159.4105 O.2     1  UNL1       -0.2679
     50 N         138.6455  142.4487  158.9844 N.am    1  UNL1       -0.3008
     51 H         138.8295  143.2005  158.3760 H       1  UNL1        0.1497
     52 C         136.3260  139.4074  153.7922 C.3     1  UNL1        0.0527
     53 C         136.7255  140.3369  154.8994 C.ar    1  UNL1        0.0666
     54 C         136.7778  141.8339  154.8182 C.ar    1  UNL1        0.0517
     55 S         137.2276  142.3550  156.1510 S.2     1  UNL1       -0.0618
     56 C         137.4532  141.1801  157.0558 C.ar    1  UNL1        0.1636
     57 N         137.1430  139.9329  156.2824 N.ar    1  UNL1       -0.2381
@<TRIPOS>BOND
     1    52    53    1
     2    53    54   ar
     3    54    55   ar
     4    55    56   ar
     5    56    48    1
     6    48    49    2
     7    48    50   am
     8    42    50    1
     9    42    43    1
    10    43    44    1
    11    44    45    1
    12    45    38    1
    13    38    39   am
    14    39    40    2
    15    39    31    1
    16    31    32   ar
    17    32    33   ar
    18    33    34    1
    19    33    35   ar
    20    35    36   ar
    21    36    37   ar
    22    37    30    1
    23    30     1    1
    24     1     2   ar
    25     2     3   ar
    26     3     4   ar
    27     4     5   ar
    28     5     7    1
    29     7     8   ar
    30     8     9   ar
    31     9    10   ar
    32    10    13    1
    33    13    14    1
    34    14    15    1
    35    15    16    1
    36    16    17    1
    37    16    18    1
    38    18    19    1
    39    19    20    1
    40    19    21    1
    41    10    11   ar
    42    11    12   ar
    43    12    23    1
    44    23    24    1
    45    24    25    1
    46    25    26    1
    47    26    27    1
    48    27    28    1
    49    28    29    1
    50     5     6   ar
    51    45    46    1
    52    46    47    1
    53    56    57   ar
    54    57    53   ar
    55    47    42    1
    56    37    31   ar
    57     6     1   ar
    58    12     7   ar
    59    29    24    1
    60    21    14    1
    61    50    51    1
    62    38    41    1
    63    18    22    1
@<TRIPOS>MOLECULE
*****
 57 63 0 0 0
SMALL
GASTEIGER

@<TRIPOS>ATOM
      1 C         141.9573  139.0090  166.0229 C.ar    1  UNL1        0.1472
      2 C         143.3225  138.7215  166.5742 C.ar    1  UNL1        0.0376
      3 C         144.5044  138.6542  165.6530 C.ar    1  UNL1        0.0031
      4 C         144.3211  138.8744  164.1806 C.ar    1  UNL1        0.0002
      5 C         142.9560  139.1620  163.6294 C.ar    1  UNL1        0.0028
      6 C         141.7741  139.2293  164.5506 C.ar    1  UNL1        0.0375
      7 C         142.7728  139.3822  162.1570 C.ar    1  UNL1       -0.0026
      8 C         141.6831  138.6608  161.4206 C.ar    1  UNL1       -0.0005
      9 C         141.4998  138.8811  159.9483 C.ar    1  UNL1       -0.0029
     10 C         142.4062  139.8227  159.2123 C.ar    1  UNL1       -0.0064
     11 C         143.4959  140.5441  159.9486 C.ar    1  UNL1       -0.0058
     12 C         143.6792  140.3239  161.4210 C.ar    1  UNL1       -0.0064
     13 C         142.2230  140.0429  157.7398 C.3     1  UNL1        0.0992
     14 N         140.8801  139.8206  157.1097 N.3     1  UNL1       -0.2666
     15 C         139.7577  140.7789  157.3782 C.3     1  UNL1        0.0882
     16 C         138.4147  140.5566  156.7480 C.3     1  UNL1        0.0702
     17 C         137.2924  141.5147  157.0165 C.3     1  UNL1        0.0186
     18 N         138.1942  139.3760  155.8493 N.3     1  UNL1       -0.2974
     19 C         139.3166  138.4178  155.5808 C.3     1  UNL1        0.0702
     20 C         139.0960  137.2372  154.6821 C.3     1  UNL1        0.0186
     21 C         140.6595  138.6401  156.2110 C.3     1  UNL1        0.0882
     22 H         137.8995  139.7451  154.9453 H       1  UNL1        0.1232
     23 C         144.7688  141.0453  162.1573 C.3     1  UNL1        0.0993
     24 N         144.4670  142.3263  162.8768 N.3     1  UNL1       -0.2646
     25 C         144.6245  142.4051  164.3664 C.3     1  UNL1        0.1049
     26 C         144.3227  143.6861  165.0859 C.3     1  UNL1        0.1595
     27 O         143.8632  144.8885  164.3158 O.3     1  UNL1       -0.3508
     28 C         143.7056  144.8099  162.8262 C.3     1  UNL1        0.1595
     29 C         144.0075  143.5288  162.1066 C.3     1  UNL1        0.1049
     30 O         140.7754  139.0764  166.9441 O.3     1  UNL1       -0.4360
     31 C         140.3292  141.5257  167.6869 C.ar    1  UNL1        0.1090
     32 C         140.2771  142.5672  168.7651 C.ar    1  UNL1        0.0405
     33 C         140.6191  142.2008  170.1788 C.ar    1  UNL1        0.1596
     34 F         140.5670  143.2423  171.2571 F       1  UNL1       -0.2025
     35 C         141.0133  140.7930  170.5144 C.ar    1  UNL1        0.1316
     36 N         141.0654  139.7515  169.4362 N.ar    1  UNL1       -0.2073
     37 C         140.7233  140.1179  168.0224 C.ar    1  UNL1        0.2341
     38 N         140.8347  142.8805  165.5284 N.am    1  UNL1       -0.3024
     39 C         139.9872  141.8921  166.2730 C.2     1  UNL1        0.2504
     40 O         138.7975  141.2699  165.6039 O.2     1  UNL1       -0.2700
     41 H         141.6155  143.2889  165.9676 H       1  UNL1        0.1497
     42 C         139.8087  143.9795  161.2870 C.3     1  UNL1        0.0720
     43 C         140.4516  142.6574  161.5846 C.3     1  UNL1        0.0213
     44 C         140.7936  142.2911  162.9984 C.3     1  UNL1        0.0213
     45 C         140.4927  143.2469  164.1146 C.3     1  UNL1        0.0720
     46 C         139.8498  144.5690  163.8170 C.3     1  UNL1        0.0213
     47 C         139.5078  144.9353  162.4032 C.3     1  UNL1        0.0213
     48 C         140.4871  145.0210  159.0055 C.2     1  UNL1        0.2697
     49 O         141.8496  145.3298  159.5516 O.2     1  UNL1       -0.2679
     50 N         139.4666  144.3458  159.8732 N.am    1  UNL1       -0.3008
     51 H         138.5724  144.1431  159.5147 H       1  UNL1        0.1497
     52 C         139.3645  147.8280  154.6765 C.3     1  UNL1        0.0527
     53 C         139.6290  146.6776  155.6018 C.ar    1  UNL1        0.0666
     54 C         139.6084  145.2244  155.2303 C.ar    1  UNL1        0.0517
     55 S         139.9273  144.4269  156.4602 S.2     1  UNL1       -0.0618
     56 C         140.1450  145.3873  157.5917 C.ar    1  UNL1        0.1636
     57 N         139.9607  146.7782  157.0612 N.ar    1  UNL1       -0.2381
@<TRIPOS>BOND
     1    52    53    1
     2    53    54   ar
     3    54    55   ar
     4    55    56   ar
     5    56    48    1
     6    48    49    2
     7    48    50   am
     8    42    50    1
     9    42    43    1
    10    43    44    1
    11    44    45    1
    12    45    38    1
    13    38    39   am
    14    39    40    2
    15    39    31    1
    16    31    32   ar
    17    32    33   ar
    18    33    34    1
    19    33    35   ar
    20    35    36   ar
    21    36    37   ar
    22    37    30    1
    23    30     1    1
    24     1     2   ar
    25     2     3   ar
    26     3     4   ar
    27     4     5   ar
    28     5     7    1
    29     7     8   ar
    30     8     9   ar
    31     9    10   ar
    32    10    13    1
    33    13    14    1
    34    14    15    1
    35    15    16    1
    36    16    17    1
    37    16    18    1
    38    18    19    1
    39    19    20    1
    40    19    21    1
    41    10    11   ar
    42    11    12   ar
    43    12    23    1
    44    23    24    1
    45    24    25    1
    46    25    26    1
    47    26    27    1
    48    27    28    1
    49    28    29    1
    50     5     6   ar
    51    45    46    1
    52    46    47    1
    53    56    57   ar
    54    57    53   ar
    55    47    42    1
    56    37    31   ar
    57     6     1   ar
    58    12     7   ar
    59    29    24    1
    60    21    14    1
    61    50    51    1
    62    38    41    1
    63    18    22    1
@<TRIPOS>MOLECULE
*****
 57 63 0 0 0
SMALL
GASTEIGER

@<TRIPOS>ATOM
      1 C         140.7694  139.1664  166.1264 C.ar    1  UNL1        0.1472
      2 C         139.5254  139.0746  166.9595 C.ar    1  UNL1        0.0376
      3 C         138.1782  139.0915  166.3001 C.ar    1  UNL1        0.0031
      4 C         138.0750  139.2001  164.8076 C.ar    1  UNL1        0.0002
      5 C         139.3190  139.2919  163.9745 C.ar    1  UNL1        0.0028
      6 C         140.6662  139.2750  164.6339 C.ar    1  UNL1        0.0375
      7 C         139.2159  139.4006  162.4820 C.ar    1  UNL1       -0.0026
      8 C         140.0667  138.5295  161.6060 C.ar    1  UNL1       -0.0005
      9 C         139.9636  138.6381  160.1135 C.ar    1  UNL1       -0.0029
     10 C         139.0096  139.6178  159.4970 C.ar    1  UNL1       -0.0064
     11 C         138.1588  140.4889  160.3730 C.ar    1  UNL1       -0.0058
     12 C         138.2619  140.3802  161.8654 C.ar    1  UNL1       -0.0064
     13 C         138.9065  139.7264  158.0045 C.3     1  UNL1        0.0992
     14 N         139.9811  139.1454  157.1341 N.3     1  UNL1       -0.2666
     15 C         141.2175  139.9412  156.8369 C.3     1  UNL1        0.0882
     16 C         142.2922  139.3602  155.9666 C.3     1  UNL1        0.0702
     17 C         143.5285  140.1559  155.6693 C.3     1  UNL1        0.0186
     18 N         142.1305  137.9834  155.3935 N.3     1  UNL1       -0.2974
     19 C         140.8942  137.1877  155.6908 C.3     1  UNL1        0.0702
     20 C         140.7326  135.8109  155.1177 C.3     1  UNL1        0.0186
     21 C         139.8196  137.7687  156.5611 C.3     1  UNL1        0.0882
     22 H         142.9223  137.4319  155.7243 H       1  UNL1        0.1232
     23 C         137.4110  141.2513  162.7414 C.3     1  UNL1        0.0993
     24 N         137.9484  142.5559  163.2504 N.3     1  UNL1       -0.2646
     25 C         138.1626  142.7561  164.7215 C.3     1  UNL1        0.1049
     26 C         138.7000  144.0607  165.2305 C.3     1  UNL1        0.1595
     27 O         139.0233  145.1652  164.2684 O.3     1  UNL1       -0.3508
     28 C         138.8092  144.9651  162.7974 C.3     1  UNL1        0.1595
     29 C         138.2717  143.6604  162.2883 C.3     1  UNL1        0.1049
     30 O         142.1166  139.1495  166.7858 O.3     1  UNL1       -0.4360
     31 C         142.8755  141.5464  167.4408 C.ar    1  UNL1        0.1090
     32 C         143.2078  142.5614  168.4940 C.ar    1  UNL1        0.0405
     33 C         143.1134  142.1947  169.9454 C.ar    1  UNL1        0.1596
     34 F         143.4456  143.2098  170.9986 F       1  UNL1       -0.2025
     35 C         142.6867  140.8129  170.3436 C.ar    1  UNL1        0.1316
     36 N         142.3544  139.7978  169.2904 N.ar    1  UNL1       -0.2073
     37 C         142.4489  140.1646  167.8390 C.ar    1  UNL1        0.2341
     38 N         141.9064  142.7629  165.3598 N.am    1  UNL1       -0.3024
     39 C         142.9700  141.9131  165.9894 C.2     1  UNL1        0.2504
     40 O         144.1280  141.4299  165.1675 O.2     1  UNL1       -0.2700
     41 H         141.1463  143.0801  165.8992 H       1  UNL1        0.1497
     42 C         142.1896  143.8631  161.0056 C.3     1  UNL1        0.0720
     43 C         142.6172  144.8444  162.0564 C.3     1  UNL1        0.0213
     44 C         142.5228  144.4776  163.5078 C.3     1  UNL1        0.0213
     45 C         142.0008  143.1297  163.9083 C.3     1  UNL1        0.0720
     46 C         141.5732  142.1484  162.8575 C.3     1  UNL1        0.0213
     47 C         141.6676  142.5152  161.4061 C.3     1  UNL1        0.0213
     48 C         141.1156  144.8697  158.8646 C.2     1  UNL1        0.2697
     49 O         139.8528  145.1428  159.6266 O.2     1  UNL1       -0.2679
     50 N         142.2841  144.2298  159.5541 N.am    1  UNL1       -0.3008
     51 H         143.1129  144.0506  159.0540 H       1  UNL1        0.1497
     52 C         140.3054  147.2571  154.2253 C.3     1  UNL1        0.0527
     53 C         140.8376  146.3338  155.2807 C.ar    1  UNL1        0.0666
     54 C         141.8732  145.2675  155.0786 C.ar    1  UNL1        0.0517
     55 S         142.1033  144.5892  156.3967 S.2     1  UNL1       -0.0618
     56 C         141.2101  145.2364  157.4132 C.ar    1  UNL1        0.1636
     57 N         140.4279  146.3145  156.7235 N.ar    1  UNL1       -0.2381
@<TRIPOS>BOND
     1    52    53    1
     2    53    54   ar
     3    54    55   ar
     4    55    56   ar
     5    56    48    1
     6    48    49    2
     7    48    50   am
     8    42    50    1
     9    42    43    1
    10    43    44    1
    11    44    45    1
    12    45    38    1
    13    38    39   am
    14    39    40    2
    15    39    31    1
    16    31    32   ar
    17    32    33   ar
    18    33    34    1
    19    33    35   ar
    20    35    36   ar
    21    36    37   ar
    22    37    30    1
    23    30     1    1
    24     1     2   ar
    25     2     3   ar
    26     3     4   ar
    27     4     5   ar
    28     5     7    1
    29     7     8   ar
    30     8     9   ar
    31     9    10   ar
    32    10    13    1
    33    13    14    1
    34    14    15    1
    35    15    16    1
    36    16    17    1
    37    16    18    1
    38    18    19    1
    39    19    20    1
    40    19    21    1
    41    10    11   ar
    42    11    12   ar
    43    12    23    1
    44    23    24    1
    45    24    25    1
    46    25    26    1
    47    26    27    1
    48    27    28    1
    49    28    29    1
    50     5     6   ar
    51    45    46    1
    52    46    47    1
    53    56    57   ar
    54    57    53   ar
    55    47    42    1
    56    37    31   ar
    57     6     1   ar
    58    12     7   ar
    59    29    24    1
    60    21    14    1
    61    50    51    1
    62    38    41    1
    63    18    22    1
@<TRIPOS>MOLECULE
*****
 57 63 0 0 0
SMALL
GASTEIGER

@<TRIPOS>ATOM
      1 C         142.4275  142.7269  156.3495 C.ar    1  UNL1        0.1472
      2 C         142.6797  141.9738  155.0770 C.ar    1  UNL1        0.0376
      3 C         142.3878  140.5042  155.0048 C.ar    1  UNL1        0.0031
      4 C         141.8437  139.7878  156.2052 C.ar    1  UNL1        0.0002
      5 C         141.5915  140.5409  157.4776 C.ar    1  UNL1        0.0028
      6 C         141.8834  142.0105  157.5498 C.ar    1  UNL1        0.0375
      7 C         141.0474  139.8245  158.6779 C.ar    1  UNL1       -0.0026
      8 C         139.5984  139.4399  158.7288 C.ar    1  UNL1       -0.0005
      9 C         139.0543  138.7236  159.9291 C.ar    1  UNL1       -0.0029
     10 C         139.9591  138.3918  161.0785 C.ar    1  UNL1       -0.0064
     11 C         141.4081  138.7764  161.0276 C.ar    1  UNL1       -0.0058
     12 C         141.9522  139.4927  159.8273 C.ar    1  UNL1       -0.0064
     13 C         139.4150  137.6754  162.2788 C.3     1  UNL1        0.0992
     14 N         139.7841  138.1354  163.6580 N.3     1  UNL1       -0.2666
     15 C         141.2273  138.2994  164.0327 C.3     1  UNL1        0.0882
     16 C         141.5964  138.7595  165.4119 C.3     1  UNL1        0.0702
     17 C         143.0395  138.9235  165.7866 C.3     1  UNL1        0.0186
     18 N         140.5223  139.0556  166.4163 N.3     1  UNL1       -0.2974
     19 C         139.0792  138.8916  166.0415 C.3     1  UNL1        0.0702
     20 C         138.0052  139.1877  167.0459 C.3     1  UNL1        0.0186
     21 C         138.7101  138.4315  164.6624 C.3     1  UNL1        0.0882
     22 H         140.6443  140.0278  166.6998 H       1  UNL1        0.1232
     23 C         143.4012  139.8773  159.7765 C.3     1  UNL1        0.0993
     24 N         143.9747  140.7806  160.8276 N.3     1  UNL1       -0.2646
     25 C         144.5464  140.1984  162.0863 C.3     1  UNL1        0.1049
     26 C         145.1199  141.1017  163.1375 C.3     1  UNL1        0.1595
     27 O         145.1219  142.5873  162.9301 O.3     1  UNL1       -0.3508
     28 C         144.5502  143.1696  161.6714 C.3     1  UNL1        0.1595
     29 C         143.9766  142.2662  160.6202 C.3     1  UNL1        0.1049
     30 O         142.7194  144.1965  156.4217 O.3     1  UNL1       -0.4360
     31 C         140.7157  145.6744  157.1641 C.ar    1  UNL1        0.1090
     32 C         139.6427  146.6692  156.8340 C.ar    1  UNL1        0.0405
     33 C         139.5005  147.1810  155.4312 C.ar    1  UNL1        0.1596
     34 F         138.4275  148.1759  155.1010 F       1  UNL1       -0.2025
     35 C         140.4312  146.6980  154.3586 C.ar    1  UNL1        0.1316
     36 N         141.5041  145.7032  154.6888 N.ar    1  UNL1       -0.2073
     37 C         141.6464  145.1914  156.0915 C.ar    1  UNL1        0.2341
     38 N         139.6839  144.5366  159.2597 N.am    1  UNL1       -0.3024
     39 C         140.8580  145.1625  158.5669 C.2     1  UNL1        0.2504
     40 O         142.1744  145.2765  159.2770 O.2     1  UNL1       -0.2700
     41 H         138.8200  144.4618  158.7936 H       1  UNL1        0.1497
     42 C         140.1109  143.0010  163.4679 C.3     1  UNL1        0.0720
     43 C         140.4296  142.1061  162.3071 C.3     1  UNL1        0.0213
     44 C         140.2873  142.6180  160.9043 C.3     1  UNL1        0.0213
     45 C         139.8262  144.0248  160.6625 C.3     1  UNL1        0.0720
     46 C         139.5075  144.9196  161.8233 C.3     1  UNL1        0.0213
     47 C         139.6498  144.4077  163.2260 C.3     1  UNL1        0.0213
     48 C         141.5200  142.7370  165.6346 C.2     1  UNL1        0.2697
     49 O         142.6446  143.4967  164.9958 O.2     1  UNL1       -0.2679
     50 N         140.2532  142.4891  164.8707 N.am    1  UNL1       -0.3008
     51 H         139.5151  141.9905  165.2900 H       1  UNL1        0.1497
     52 C         140.3931  140.7257  170.3849 C.3     1  UNL1        0.0527
     53 C         141.1443  141.3006  169.2209 C.ar    1  UNL1        0.0666
     54 C         142.6184  141.5742  169.1712 C.ar    1  UNL1        0.0517
     55 S         142.9385  142.1456  167.8217 S.2     1  UNL1       -0.0618
     56 C         141.6623  142.2251  167.0374 C.ar    1  UNL1        0.1636
     57 N         140.5535  141.7029  167.9022 N.ar    1  UNL1       -0.2381
@<TRIPOS>BOND
     1    52    53    1
     2    53    54   ar
     3    54    55   ar
     4    55    56   ar
     5    56    48    1
     6    48    49    2
     7    48    50   am
     8    42    50    1
     9    42    43    1
    10    43    44    1
    11    44    45    1
    12    45    38    1
    13    38    39   am
    14    39    40    2
    15    39    31    1
    16    31    32   ar
    17    32    33   ar
    18    33    34    1
    19    33    35   ar
    20    35    36   ar
    21    36    37   ar
    22    37    30    1
    23    30     1    1
    24     1     2   ar
    25     2     3   ar
    26     3     4   ar
    27     4     5   ar
    28     5     7    1
    29     7     8   ar
    30     8     9   ar
    31     9    10   ar
    32    10    13    1
    33    13    14    1
    34    14    15    1
    35    15    16    1
    36    16    17    1
    37    16    18    1
    38    18    19    1
    39    19    20    1
    40    19    21    1
    41    10    11   ar
    42    11    12   ar
    43    12    23    1
    44    23    24    1
    45    24    25    1
    46    25    26    1
    47    26    27    1
    48    27    28    1
    49    28    29    1
    50     5     6   ar
    51    45    46    1
    52    46    47    1
    53    56    57   ar
    54    57    53   ar
    55    47    42    1
    56    37    31   ar
    57     6     1   ar
    58    12     7   ar
    59    29    24    1
    60    21    14    1
    61    50    51    1
    62    38    41    1
    63    18    22    1
@<TRIPOS>MOLECULE
*****
 57 63 0 0 0
SMALL
GASTEIGER

@<TRIPOS>ATOM
      1 C         143.4983  142.0326  165.2121 C.ar    1  UNL1        0.1472
      2 C         144.1013  143.2116  165.9166 C.ar    1  UNL1        0.0376
      3 C         144.3102  144.5003  165.1780 C.ar    1  UNL1        0.0031
      4 C         143.9160  144.6100  163.7348 C.ar    1  UNL1        0.0002
      5 C         143.3131  143.4310  163.0303 C.ar    1  UNL1        0.0028
      6 C         143.1042  142.1423  163.7690 C.ar    1  UNL1        0.0375
      7 C         142.9189  143.5407  161.5871 C.ar    1  UNL1       -0.0026
      8 C         143.6873  142.7893  160.5407 C.ar    1  UNL1       -0.0005
      9 C         143.2933  142.8989  159.0976 C.ar    1  UNL1       -0.0029
     10 C         142.1308  143.7599  158.7009 C.ar    1  UNL1       -0.0064
     11 C         141.3624  144.5112  159.7474 C.ar    1  UNL1       -0.0058
     12 C         141.7565  144.4016  161.1905 C.ar    1  UNL1       -0.0064
     13 C         141.7367  143.8696  157.2577 C.3     1  UNL1        0.0992
     14 N         140.3100  143.6476  156.8509 N.3     1  UNL1       -0.2666
     15 C         139.5706  142.4372  157.3390 C.3     1  UNL1        0.0882
     16 C         138.1440  142.2152  156.9322 C.3     1  UNL1        0.0702
     17 C         137.4046  141.0048  157.4202 C.3     1  UNL1        0.0186
     18 N         137.4568  143.2038  156.0374 N.3     1  UNL1       -0.2974
     19 C         138.1962  144.4142  155.5494 C.3     1  UNL1        0.0702
     20 C         137.5090  145.4027  154.6546 C.3     1  UNL1        0.0186
     21 C         139.6228  144.6361  155.9562 C.3     1  UNL1        0.0882
     22 H         136.6399  143.5428  156.5456 H       1  UNL1        0.1232
     23 C         140.9881  145.1530  162.2369 C.3     1  UNL1        0.0993
     24 N         139.9001  144.4651  163.0070 N.3     1  UNL1       -0.2646
     25 C         138.8254  143.7139  162.2784 C.3     1  UNL1        0.1049
     26 C         137.7373  143.0260  163.0484 C.3     1  UNL1        0.1595
     27 O         137.7239  143.0893  164.5470 O.3     1  UNL1       -0.3508
     28 C         138.7986  143.8404  165.2756 C.3     1  UNL1        0.1595
     29 C         139.8867  144.5284  164.5056 C.3     1  UNL1        0.1049
     30 O         143.2895  140.7438  165.9507 O.3     1  UNL1       -0.4360
     31 C         140.8351  139.9547  166.2717 C.ar    1  UNL1        0.1090
     32 C         139.6310  139.7797  167.1490 C.ar    1  UNL1        0.0405
     33 C         139.6773  140.2188  168.5824 C.ar    1  UNL1        0.1596
     34 F         138.4732  140.0438  169.4598 F       1  UNL1       -0.2025
     35 C         140.9276  140.8330  169.1387 C.ar    1  UNL1        0.1316
     36 N         142.1317  141.0080  168.2615 N.ar    1  UNL1       -0.2073
     37 C         142.0854  140.5689  166.8280 C.ar    1  UNL1        0.2341
     38 N         139.9864  140.2963  163.8400 N.am    1  UNL1       -0.3024
     39 C         140.7888  139.5155  164.8382 C.2     1  UNL1        0.2504
     40 O         141.5450  138.2954  164.4028 O.2     1  UNL1       -0.2700
     41 H         139.4901  141.0971  164.1258 H       1  UNL1        0.1497
     42 C         139.8477  138.9787  159.5395 C.3     1  UNL1        0.0720
     43 C         139.0917  138.2118  160.5836 C.3     1  UNL1        0.0213
     44 C         139.1379  138.6510  162.0171 C.3     1  UNL1        0.0213
     45 C         139.9402  139.8572  162.4065 C.3     1  UNL1        0.0720
     46 C         140.6962  140.6241  161.3624 C.3     1  UNL1        0.0213
     47 C         140.6499  140.1849  159.9289 C.3     1  UNL1        0.0213
     48 C         140.9661  137.8077  157.5078 C.2     1  UNL1        0.2697
     49 O         142.1771  137.5149  158.3432 O.2     1  UNL1       -0.2679
     50 N         139.8014  138.5395  158.1059 N.am    1  UNL1       -0.3008
     51 H         139.0066  138.7317  157.5576 H       1  UNL1        0.1497
     52 C         141.8937  135.1607  153.0342 C.3     1  UNL1        0.0527
     53 C         141.3462  136.1518  154.0180 C.ar    1  UNL1        0.0666
     54 C         140.3511  137.2336  153.7186 C.ar    1  UNL1        0.0517
     55 S         140.0876  137.9856  154.9896 S.2     1  UNL1       -0.0618
     56 C         140.9199  137.3685  156.0743 C.ar    1  UNL1        0.1636
     57 N         141.6977  136.2352  155.4738 N.ar    1  UNL1       -0.2381
@<TRIPOS>BOND
     1    52    53    1
     2    53    54   ar
     3    54    55   ar
     4    55    56   ar
     5    56    48    1
     6    48    49    2
     7    48    50   am
     8    42    50    1
     9    42    43    1
    10    43    44    1
    11    44    45    1
    12    45    38    1
    13    38    39   am
    14    39    40    2
    15    39    31    1
    16    31    32   ar
    17    32    33   ar
    18    33    34    1
    19    33    35   ar
    20    35    36   ar
    21    36    37   ar
    22    37    30    1
    23    30     1    1
    24     1     2   ar
    25     2     3   ar
    26     3     4   ar
    27     4     5   ar
    28     5     7    1
    29     7     8   ar
    30     8     9   ar
    31     9    10   ar
    32    10    13    1
    33    13    14    1
    34    14    15    1
    35    15    16    1
    36    16    17    1
    37    16    18    1
    38    18    19    1
    39    19    20    1
    40    19    21    1
    41    10    11   ar
    42    11    12   ar
    43    12    23    1
    44    23    24    1
    45    24    25    1
    46    25    26    1
    47    26    27    1
    48    27    28    1
    49    28    29    1
    50     5     6   ar
    51    45    46    1
    52    46    47    1
    53    56    57   ar
    54    57    53   ar
    55    47    42    1
    56    37    31   ar
    57     6     1   ar
    58    12     7   ar
    59    29    24    1
    60    21    14    1
    61    50    51    1
    62    38    41    1
    63    18    22    1
