@<TRIPOS>MOLECULE
*****
 37 42 0 0 0
SMALL
GASTEIGER

@<TRIPOS>ATOM
      1 C         143.3798  139.9339  160.3393 C.3     1  UNL1        0.0808
      2 C         143.1611  139.3029  158.9962 C.3     1  UNL1        0.0108
      3 C         143.5547  140.0378  157.7493 C.3     1  UNL1        0.0165
      4 C         144.1670  141.4038  157.8455 C.3     1  UNL1        0.0580
      5 C         144.3857  142.0348  159.1885 C.3     1  UNL1        0.0208
      6 C         143.9921  141.2999  160.4355 C.3     1  UNL1        0.0323
      7 C         144.2107  141.9309  161.7787 C.ar    1  UNL1       -0.0220
      8 C         143.4868  143.1938  162.1408 C.ar    1  UNL1       -0.0038
      9 C         143.7054  143.8248  163.4839 C.ar    1  UNL1        0.0064
     10 C         144.6480  143.1930  164.4649 C.ar    1  UNL1        0.0345
     11 BR        144.8666  143.8240  165.8080 Br      1  UNL1       -0.0490
     12 C         145.3719  141.9301  164.1028 C.ar    1  UNL1        0.0064
     13 C         145.1532  141.2990  162.7597 C.ar    1  UNL1       -0.0038
     14 O         143.6370  137.8901  161.9226 O.2     1  UNL1       -0.2749
     15 C         142.9861  139.1990  161.5864 C.2     1  UNL1        0.2255
     16 N         141.9416  139.7730  162.4971 N.am    1  UNL1       -0.2781
     17 C         141.3080  139.3446  163.7874 C.3     1  UNL1        0.1031
     18 C         140.4645  140.5848  163.7851 C.3     1  UNL1        0.0742
     19 C         141.0980  141.0134  162.4947 C.3     1  UNL1        0.1031
     20 C         139.6208  141.8252  163.7827 C.ar    1  UNL1       -0.0158
     21 C         138.3101  141.8393  163.0535 C.ar    1  UNL1       -0.0039
     22 C         137.4665  143.0796  163.0512 C.ar    1  UNL1       -0.0003
     23 C         137.9337  144.3057  163.7780 C.ar    1  UNL1       -0.0000
     24 C         139.2444  144.2916  164.5072 C.ar    1  UNL1       -0.0003
     25 C         140.0880  143.0513  164.5096 C.ar    1  UNL1       -0.0039
     26 C         139.8309  140.1564  165.0754 C.ar    1  UNL1       -0.0158
     27 C         138.5755  139.3356  165.0583 C.ar    1  UNL1       -0.0039
     28 C         137.9418  138.9071  166.3486 C.ar    1  UNL1       -0.0003
     29 C         138.5635  139.2995  167.6561 C.ar    1  UNL1       -0.0000
     30 C         139.8189  140.1203  167.6732 C.ar    1  UNL1       -0.0003
     31 C         140.4526  140.5488  166.3829 C.ar    1  UNL1       -0.0039
     32 N         144.5607  142.1387  156.5984 N.3     1  UNL1       -0.2697
     33 C         143.5191  142.8504  155.7869 C.3     1  UNL1        0.1046
     34 C         143.9127  143.5854  154.5399 C.3     1  UNL1        0.1595
     35 O         145.3479  143.6085  154.1044 O.3     1  UNL1       -0.3508
     36 C         146.3895  142.8967  154.9160 C.3     1  UNL1        0.1595
     37 C         145.9959  142.1618  156.1630 C.3     1  UNL1        0.1046
@<TRIPOS>BOND
     1    14    15    2
     2     1    15    1
     3     1     2    1
     4     2     3    1
     5     3     4    1
     6     4    32    1
     7    32    33    1
     8    33    34    1
     9    34    35    1
    10    35    36    1
    11    36    37    1
    12     4     5    1
    13     5     6    1
    14     6     7    1
    15     7     8   ar
    16     8     9   ar
    17     9    10   ar
    18    10    11    1
    19    10    12   ar
    20    12    13   ar
    21    15    16   am
    22    16    17    1
    23    17    18    1
    24    18    20    1
    25    20    21   ar
    26    21    22   ar
    27    22    23   ar
    28    23    24   ar
    29    24    25   ar
    30    18    26    1
    31    26    27   ar
    32    27    28   ar
    33    28    29   ar
    34    29    30   ar
    35    30    31   ar
    36    18    19    1
    37     6     1    1
    38    13     7   ar
    39    19    16    1
    40    37    32    1
    41    25    20   ar
    42    31    26   ar
@<TRIPOS>MOLECULE
*****
 37 42 0 0 0
SMALL
GASTEIGER

@<TRIPOS>ATOM
      1 C         139.6829  144.3868  162.1791 C.3     1  UNL1        0.0808
      2 C         139.9139  145.7698  161.6463 C.3     1  UNL1        0.0108
      3 C         140.0620  145.9896  160.1699 C.3     1  UNL1        0.0165
      4 C         139.9792  144.8264  159.2264 C.3     1  UNL1        0.0580
      5 C         139.7483  143.4435  159.7593 C.3     1  UNL1        0.0208
      6 C         139.6002  143.2236  161.2356 C.3     1  UNL1        0.0323
      7 C         139.3692  141.8406  161.7686 C.ar    1  UNL1       -0.0220
      8 C         140.4518  140.8073  161.6671 C.ar    1  UNL1       -0.0038
      9 C         140.2209  139.4243  162.2000 C.ar    1  UNL1        0.0064
     10 C         138.9074  139.0746  162.8344 C.ar    1  UNL1        0.0345
     11 BR        138.6765  137.6916  163.3672 Br      1  UNL1       -0.0490
     12 C         137.8248  140.1079  162.9358 C.ar    1  UNL1        0.0064
     13 C         138.0557  141.4909  162.4029 C.ar    1  UNL1       -0.0038
     14 O         138.3801  144.7778  164.3927 O.2     1  UNL1       -0.2749
     15 C         139.5348  144.1669  163.6556 C.2     1  UNL1        0.2255
     16 N         140.5414  143.3361  164.3948 N.am    1  UNL1       -0.2781
     17 C         140.7213  142.9082  165.8212 C.3     1  UNL1        0.1031
     18 C         141.9649  142.1611  165.4403 C.3     1  UNL1        0.0742
     19 C         141.7851  142.5889  164.0139 C.3     1  UNL1        0.1031
     20 C         143.2086  141.4139  165.0593 C.ar    1  UNL1       -0.0158
     21 C         144.4264  142.1650  164.6088 C.ar    1  UNL1       -0.0039
     22 C         145.6700  141.4179  164.2279 C.ar    1  UNL1       -0.0003
     23 C         145.6959  139.9197  164.2975 C.ar    1  UNL1       -0.0000
     24 C         144.4781  139.1687  164.7480 C.ar    1  UNL1       -0.0003
     25 C         143.2345  139.9158  165.1289 C.ar    1  UNL1       -0.0039
     26 C         142.1448  141.7332  166.8666 C.ar    1  UNL1       -0.0158
     27 C         141.3248  140.6060  167.4206 C.ar    1  UNL1       -0.0039
     28 C         141.5046  140.1780  168.8469 C.ar    1  UNL1       -0.0003
     29 C         142.5045  140.8773  169.7194 C.ar    1  UNL1       -0.0000
     30 C         143.3246  142.0045  169.1654 C.ar    1  UNL1       -0.0003
     31 C         143.1447  142.4325  167.7391 C.ar    1  UNL1       -0.0039
     32 N         140.1274  145.0463  157.7500 N.3     1  UNL1       -0.2697
     33 C         140.0054  146.4291  157.1817 C.3     1  UNL1        0.1046
     34 C         140.1536  146.6490  155.7053 C.3     1  UNL1        0.1595
     35 O         140.4237  145.4860  154.7972 O.3     1  UNL1       -0.3508
     36 C         140.5458  144.1032  155.3656 C.3     1  UNL1        0.1595
     37 C         140.3976  143.8834  156.8419 C.3     1  UNL1        0.1046
@<TRIPOS>BOND
     1    14    15    2
     2     1    15    1
     3     1     2    1
     4     2     3    1
     5     3     4    1
     6     4    32    1
     7    32    33    1
     8    33    34    1
     9    34    35    1
    10    35    36    1
    11    36    37    1
    12     4     5    1
    13     5     6    1
    14     6     7    1
    15     7     8   ar
    16     8     9   ar
    17     9    10   ar
    18    10    11    1
    19    10    12   ar
    20    12    13   ar
    21    15    16   am
    22    16    17    1
    23    17    18    1
    24    18    20    1
    25    20    21   ar
    26    21    22   ar
    27    22    23   ar
    28    23    24   ar
    29    24    25   ar
    30    18    26    1
    31    26    27   ar
    32    27    28   ar
    33    28    29   ar
    34    29    30   ar
    35    30    31   ar
    36    18    19    1
    37     6     1    1
    38    13     7   ar
    39    19    16    1
    40    37    32    1
    41    25    20   ar
    42    31    26   ar
@<TRIPOS>MOLECULE
*****
 37 42 0 0 0
SMALL
GASTEIGER

@<TRIPOS>ATOM
      1 C         143.7143  143.0006  162.7140 C.3     1  UNL1        0.0808
      2 C         144.9630  142.6974  161.9404 C.3     1  UNL1        0.0108
      3 C         144.9287  142.6716  160.4410 C.3     1  UNL1        0.0165
      4 C         143.6456  142.9490  159.7153 C.3     1  UNL1        0.0580
      5 C         142.3968  143.2522  160.4890 C.3     1  UNL1        0.0208
      6 C         142.4311  143.2780  161.9883 C.3     1  UNL1        0.0323
      7 C         141.1823  143.5812  162.7620 C.ar    1  UNL1       -0.0220
      8 C         141.0979  144.8285  163.5910 C.ar    1  UNL1       -0.0038
      9 C         139.8492  145.1317  164.3647 C.ar    1  UNL1        0.0064
     10 C         138.6848  144.1876  164.3095 C.ar    1  UNL1        0.0345
     11 BR        137.4360  144.4909  165.0832 Br      1  UNL1       -0.0490
     12 C         138.7692  142.9403  163.4805 C.ar    1  UNL1        0.0064
     13 C         140.0180  142.6371  162.7068 C.ar    1  UNL1       -0.0038
     14 O         144.6011  144.0332  164.9270 O.2     1  UNL1       -0.2749
     15 C         143.7485  143.0263  164.2135 C.2     1  UNL1        0.2255
     16 N         142.9302  142.0451  164.9993 N.am    1  UNL1       -0.2781
     17 C         142.7135  141.7729  166.4584 C.3     1  UNL1        0.1031
     18 C         141.7729  140.6575  166.1107 C.3     1  UNL1        0.0742
     19 C         141.9894  140.9297  164.6516 C.3     1  UNL1        0.1031
     20 C         140.8321  139.5421  165.7629 C.ar    1  UNL1       -0.0158
     21 C         139.3637  139.6878  166.0325 C.ar    1  UNL1       -0.0039
     22 C         138.4231  138.5725  165.6848 C.ar    1  UNL1       -0.0003
     23 C         138.9507  137.3113  165.0675 C.ar    1  UNL1       -0.0000
     24 C         140.4190  137.1656  164.7979 C.ar    1  UNL1       -0.0003
     25 C         141.3597  138.2809  165.1456 C.ar    1  UNL1       -0.0039
     26 C         141.5562  140.3853  167.5698 C.ar    1  UNL1       -0.0158
     27 C         140.4578  141.0901  168.3092 C.ar    1  UNL1       -0.0039
     28 C         140.2411  140.8179  169.7682 C.ar    1  UNL1       -0.0003
     29 C         141.1228  139.8409  170.4880 C.ar    1  UNL1       -0.0000
     30 C         142.2212  139.1361  169.7485 C.ar    1  UNL1       -0.0003
     31 C         142.4380  139.4083  168.2895 C.ar    1  UNL1       -0.0039
     32 N         143.6113  142.9233  158.2159 N.3     1  UNL1       -0.2697
     33 C         142.6781  143.8314  157.4713 C.3     1  UNL1        0.1046
     34 C         142.6438  143.8056  155.9719 C.3     1  UNL1        0.1595
     35 O         143.5428  142.8717  155.2171 O.3     1  UNL1       -0.3508
     36 C         144.4760  141.9635  155.9617 C.3     1  UNL1        0.1595
     37 C         144.5103  141.9893  157.4611 C.3     1  UNL1        0.1046
@<TRIPOS>BOND
     1    14    15    2
     2     1    15    1
     3     1     2    1
     4     2     3    1
     5     3     4    1
     6     4    32    1
     7    32    33    1
     8    33    34    1
     9    34    35    1
    10    35    36    1
    11    36    37    1
    12     4     5    1
    13     5     6    1
    14     6     7    1
    15     7     8   ar
    16     8     9   ar
    17     9    10   ar
    18    10    11    1
    19    10    12   ar
    20    12    13   ar
    21    15    16   am
    22    16    17    1
    23    17    18    1
    24    18    20    1
    25    20    21   ar
    26    21    22   ar
    27    22    23   ar
    28    23    24   ar
    29    24    25   ar
    30    18    26    1
    31    26    27   ar
    32    27    28   ar
    33    28    29   ar
    34    29    30   ar
    35    30    31   ar
    36    18    19    1
    37     6     1    1
    38    13     7   ar
    39    19    16    1
    40    37    32    1
    41    25    20   ar
    42    31    26   ar
@<TRIPOS>MOLECULE
*****
 37 42 0 0 0
SMALL
GASTEIGER

@<TRIPOS>ATOM
      1 C         138.7579  140.4933  160.7062 C.3     1  UNL1        0.0808
      2 C         138.8014  139.7358  159.4123 C.3     1  UNL1        0.0108
      3 C         138.6980  140.4711  158.1090 C.3     1  UNL1        0.0165
      4 C         138.5512  141.9639  158.0997 C.3     1  UNL1        0.0580
      5 C         138.5076  142.7213  159.3936 C.3     1  UNL1        0.0208
      6 C         138.6110  141.9860  160.6969 C.3     1  UNL1        0.0323
      7 C         138.5675  142.7435  161.9909 C.ar    1  UNL1       -0.0220
      8 C         139.5866  143.8076  162.2717 C.ar    1  UNL1       -0.0038
      9 C         139.5432  144.5651  163.5656 C.ar    1  UNL1        0.0064
     10 C         138.4805  144.2583  164.5789 C.ar    1  UNL1        0.0345
     11 BR        138.4370  145.0157  165.8729 Br      1  UNL1       -0.0490
     12 C         137.4613  143.1941  164.2982 C.ar    1  UNL1        0.0064
     13 C         137.5049  142.4367  163.0041 C.ar    1  UNL1       -0.0038
     14 O         137.7661  138.8244  162.4329 O.2     1  UNL1       -0.2749
     15 C         138.8612  139.7579  162.0096 C.2     1  UNL1        0.2255
     16 N         140.0597  139.9562  162.8895 N.am    1  UNL1       -0.2781
     17 C         140.5023  139.4151  164.2167 C.3     1  UNL1        0.1031
     18 C         141.7546  140.2366  164.1340 C.3     1  UNL1        0.0742
     19 C         141.3121  140.7777  162.8068 C.3     1  UNL1        0.1031
     20 C         143.0070  141.0581  164.0513 C.ar    1  UNL1       -0.0158
     21 C         144.1978  140.5369  163.3026 C.ar    1  UNL1       -0.0039
     22 C         145.4500  141.3583  163.2199 C.ar    1  UNL1       -0.0003
     23 C         145.5116  142.7010  163.8859 C.ar    1  UNL1       -0.0000
     24 C         144.3209  143.2222  164.6345 C.ar    1  UNL1       -0.0003
     25 C         143.0686  142.4007  164.7172 C.ar    1  UNL1       -0.0039
     26 C         142.1973  139.6955  165.4611 C.ar    1  UNL1       -0.0158
     27 C         141.6510  140.2809  166.7296 C.ar    1  UNL1       -0.0039
     28 C         142.0936  139.7399  168.0568 C.ar    1  UNL1       -0.0003
     29 C         143.0824  138.6135  168.1155 C.ar    1  UNL1       -0.0000
     30 C         143.6286  138.0281  166.8471 C.ar    1  UNL1       -0.0003
     31 C         143.1861  138.5691  165.5199 C.ar    1  UNL1       -0.0039
     32 N         138.4478  142.6992  156.7963 N.3     1  UNL1       -0.2697
     33 C         139.6898  143.1775  156.1045 C.3     1  UNL1        0.1046
     34 C         139.5864  143.9128  154.8011 C.3     1  UNL1        0.1595
     35 O         138.2411  144.1698  154.1896 O.3     1  UNL1       -0.3508
     36 C         136.9990  143.6915  154.8815 C.3     1  UNL1        0.1595
     37 C         137.1024  142.9562  156.1848 C.3     1  UNL1        0.1046
@<TRIPOS>BOND
     1    14    15    2
     2     1    15    1
     3     1     2    1
     4     2     3    1
     5     3     4    1
     6     4    32    1
     7    32    33    1
     8    33    34    1
     9    34    35    1
    10    35    36    1
    11    36    37    1
    12     4     5    1
    13     5     6    1
    14     6     7    1
    15     7     8   ar
    16     8     9   ar
    17     9    10   ar
    18    10    11    1
    19    10    12   ar
    20    12    13   ar
    21    15    16   am
    22    16    17    1
    23    17    18    1
    24    18    20    1
    25    20    21   ar
    26    21    22   ar
    27    22    23   ar
    28    23    24   ar
    29    24    25   ar
    30    18    26    1
    31    26    27   ar
    32    27    28   ar
    33    28    29   ar
    34    29    30   ar
    35    30    31   ar
    36    18    19    1
    37     6     1    1
    38    13     7   ar
    39    19    16    1
    40    37    32    1
    41    25    20   ar
    42    31    26   ar
@<TRIPOS>MOLECULE
*****
 37 42 0 0 0
SMALL
GASTEIGER

@<TRIPOS>ATOM
      1 C         142.7692  139.6538  160.5818 C.3     1  UNL1        0.0808
      2 C         143.1867  138.3055  160.0742 C.3     1  UNL1        0.0108
      3 C         142.5428  137.7343  158.8458 C.3     1  UNL1        0.0165
      4 C         141.4815  138.5115  158.1249 C.3     1  UNL1        0.0580
      5 C         141.0640  139.8598  158.6325 C.3     1  UNL1        0.0208
      6 C         141.7079  140.4310  159.8610 C.3     1  UNL1        0.0323
      7 C         141.2905  141.7794  160.3686 C.ar    1  UNL1       -0.0220
      8 C         140.1089  141.9032  161.2844 C.ar    1  UNL1       -0.0038
      9 C         139.6914  143.2515  161.7920 C.ar    1  UNL1        0.0064
     10 C         140.4556  144.4761  161.3840 C.ar    1  UNL1        0.0345
     11 BR        140.0381  145.8244  161.8916 Br      1  UNL1       -0.0490
     12 C         141.6371  144.3523  160.4682 C.ar    1  UNL1        0.0064
     13 C         142.0546  143.0039  159.9606 C.ar    1  UNL1       -0.0038
     14 O         144.7375  140.9218  161.7080 O.2     1  UNL1       -0.2749
     15 C         143.4131  140.2251  161.8103 C.2     1  UNL1        0.2255
     16 N         142.7325  140.0995  163.1411 N.am    1  UNL1       -0.2781
     17 C         143.0548  140.5284  164.5419 C.3     1  UNL1        0.1031
     18 C         141.7701  139.9220  165.0232 C.3     1  UNL1        0.0742
     19 C         141.4477  139.4931  163.6224 C.3     1  UNL1        0.1031
     20 C         140.4853  139.3155  165.5045 C.ar    1  UNL1       -0.0158
     21 C         139.5680  140.1062  166.3896 C.ar    1  UNL1       -0.0039
     22 C         138.2833  139.4998  166.8709 C.ar    1  UNL1       -0.0003
     23 C         137.9157  138.1027  166.4670 C.ar    1  UNL1       -0.0000
     24 C         138.8330  137.3120  165.5819 C.ar    1  UNL1       -0.0003
     25 C         140.1177  137.9184  165.1006 C.ar    1  UNL1       -0.0039
     26 C         142.0923  140.3508  166.4240 C.ar    1  UNL1       -0.0158
     27 C         142.4372  139.3243  167.4620 C.ar    1  UNL1       -0.0039
     28 C         142.7594  139.7530  168.8628 C.ar    1  UNL1       -0.0003
     29 C         142.7368  141.2083  169.2257 C.ar    1  UNL1       -0.0000
     30 C         142.3920  142.2348  168.1877 C.ar    1  UNL1       -0.0003
     31 C         142.0697  141.8061  166.7869 C.ar    1  UNL1       -0.0039
     32 N         140.8376  137.9403  156.8964 N.3     1  UNL1       -0.2697
     33 C         141.3916  136.6955  156.2690 C.3     1  UNL1        0.1046
     34 C         140.7477  136.1243  155.0405 C.3     1  UNL1        0.1595
     35 O         139.5498  136.7978  154.4394 O.3     1  UNL1       -0.3508
     36 C         138.9957  138.0426  155.0669 C.3     1  UNL1        0.1595
     37 C         139.6396  138.6138  156.2953 C.3     1  UNL1        0.1046
@<TRIPOS>BOND
     1    14    15    2
     2     1    15    1
     3     1     2    1
     4     2     3    1
     5     3     4    1
     6     4    32    1
     7    32    33    1
     8    33    34    1
     9    34    35    1
    10    35    36    1
    11    36    37    1
    12     4     5    1
    13     5     6    1
    14     6     7    1
    15     7     8   ar
    16     8     9   ar
    17     9    10   ar
    18    10    11    1
    19    10    12   ar
    20    12    13   ar
    21    15    16   am
    22    16    17    1
    23    17    18    1
    24    18    20    1
    25    20    21   ar
    26    21    22   ar
    27    22    23   ar
    28    23    24   ar
    29    24    25   ar
    30    18    26    1
    31    26    27   ar
    32    27    28   ar
    33    28    29   ar
    34    29    30   ar
    35    30    31   ar
    36    18    19    1
    37     6     1    1
    38    13     7   ar
    39    19    16    1
    40    37    32    1
    41    25    20   ar
    42    31    26   ar
@<TRIPOS>MOLECULE
*****
 37 42 0 0 0
SMALL
GASTEIGER

@<TRIPOS>ATOM
      1 C         140.9542  140.0587  158.4536 C.3     1  UNL1        0.0808
      2 C         140.1032  139.4578  157.3744 C.3     1  UNL1        0.0108
      3 C         140.4939  138.1502  156.7520 C.3     1  UNL1        0.0165
      4 C         141.7356  137.4434  157.2088 C.3     1  UNL1        0.0580
      5 C         142.5866  138.0443  158.2880 C.3     1  UNL1        0.0208
      6 C         142.1959  139.3519  158.9104 C.3     1  UNL1        0.0323
      7 C         143.0469  139.9529  159.9897 C.ar    1  UNL1       -0.0220
      8 C         143.6887  141.2924  159.7801 C.ar    1  UNL1       -0.0038
      9 C         144.5397  141.8933  160.8593 C.ar    1  UNL1        0.0064
     10 C         144.7488  141.1548  162.1481 C.ar    1  UNL1        0.0345
     11 BR        145.5998  141.7558  163.2273 Br      1  UNL1       -0.0490
     12 C         144.1070  139.8154  162.3577 C.ar    1  UNL1        0.0064
     13 C         143.2560  139.2144  161.2784 C.ar    1  UNL1       -0.0038
     14 O         140.5519  142.6172  158.2482 O.2     1  UNL1       -0.2749
     15 C         140.5635  141.3664  159.0760 C.2     1  UNL1        0.2255
     16 N         140.1844  141.4232  160.5262 N.am    1  UNL1       -0.2781
     17 C         139.7521  142.5078  161.4678 C.3     1  UNL1        0.1031
     18 C         139.6483  141.5035  162.5771 C.3     1  UNL1        0.0742
     19 C         140.0806  140.4188  161.6355 C.3     1  UNL1        0.1031
     20 C         139.5445  140.4991  163.6864 C.ar    1  UNL1       -0.0158
     21 C         140.7815  139.8366  164.2165 C.ar    1  UNL1       -0.0039
     22 C         140.6776  138.8323  165.3257 C.ar    1  UNL1       -0.0003
     23 C         139.3369  138.4904  165.9049 C.ar    1  UNL1       -0.0000
     24 C         138.0999  139.1530  165.3748 C.ar    1  UNL1       -0.0003
     25 C         138.2037  140.1573  164.2656 C.ar    1  UNL1       -0.0039
     26 C         139.2161  142.5881  163.5187 C.ar    1  UNL1       -0.0158
     27 C         137.8159  143.1225  163.4551 C.ar    1  UNL1       -0.0039
     28 C         137.3835  144.2071  164.3967 C.ar    1  UNL1       -0.0003
     29 C         138.3513  144.7574  165.4020 C.ar    1  UNL1       -0.0000
     30 C         139.7514  144.2230  165.4656 C.ar    1  UNL1       -0.0003
     31 C         140.1838  143.1384  164.5240 C.ar    1  UNL1       -0.0039
     32 N         142.1263  136.1357  156.5864 N.3     1  UNL1       -0.2697
     33 C         143.3314  135.3968  157.0879 C.3     1  UNL1        0.1046
     34 C         143.7221  134.0890  156.4655 C.3     1  UNL1        0.1595
     35 O         142.9076  133.5204  155.3416 O.3     1  UNL1       -0.3508
     36 C         141.7024  134.2594  154.8401 C.3     1  UNL1        0.1595
     37 C         141.3118  135.5670  155.4625 C.3     1  UNL1        0.1046
@<TRIPOS>BOND
     1    14    15    2
     2     1    15    1
     3     1     2    1
     4     2     3    1
     5     3     4    1
     6     4    32    1
     7    32    33    1
     8    33    34    1
     9    34    35    1
    10    35    36    1
    11    36    37    1
    12     4     5    1
    13     5     6    1
    14     6     7    1
    15     7     8   ar
    16     8     9   ar
    17     9    10   ar
    18    10    11    1
    19    10    12   ar
    20    12    13   ar
    21    15    16   am
    22    16    17    1
    23    17    18    1
    24    18    20    1
    25    20    21   ar
    26    21    22   ar
    27    22    23   ar
    28    23    24   ar
    29    24    25   ar
    30    18    26    1
    31    26    27   ar
    32    27    28   ar
    33    28    29   ar
    34    29    30   ar
    35    30    31   ar
    36    18    19    1
    37     6     1    1
    38    13     7   ar
    39    19    16    1
    40    37    32    1
    41    25    20   ar
    42    31    26   ar
@<TRIPOS>MOLECULE
*****
 37 42 0 0 0
SMALL
GASTEIGER

@<TRIPOS>ATOM
      1 C         144.0672  141.2545  162.2766 C.3     1  UNL1        0.0808
      2 C         145.1900  142.1245  161.7945 C.3     1  UNL1        0.0108
      3 C         145.2865  142.4883  160.3425 C.3     1  UNL1        0.0165
      4 C         144.2602  141.9822  159.3726 C.3     1  UNL1        0.0580
      5 C         143.1374  141.1123  159.8548 C.3     1  UNL1        0.0208
      6 C         143.0409  140.7484  161.3067 C.3     1  UNL1        0.0323
      7 C         141.9180  139.8785  161.7889 C.ar    1  UNL1       -0.0220
      8 C         142.2108  138.5184  162.3498 C.ar    1  UNL1       -0.0038
      9 C         141.0880  137.6485  162.8320 C.ar    1  UNL1        0.0064
     10 C         139.6724  138.1385  162.7533 C.ar    1  UNL1        0.0345
     11 BR        138.5497  137.2685  163.2354 Br      1  UNL1       -0.0490
     12 C         139.3797  139.4985  162.1923 C.ar    1  UNL1        0.0064
     13 C         140.5026  140.3685  161.7102 C.ar    1  UNL1       -0.0038
     14 O         145.0651  140.0960  164.3771 O.2     1  UNL1       -0.2749
     15 C         143.9706  140.8906  163.7286 C.2     1  UNL1        0.2255
     16 N         142.7795  141.3214  164.5321 N.am    1  UNL1       -0.2781
     17 C         142.3446  141.1531  165.9578 C.3     1  UNL1        0.1031
     18 C         141.0950  141.9306  165.6684 C.3     1  UNL1        0.0742
     19 C         141.5297  142.0990  164.2428 C.3     1  UNL1        0.1031
     20 C         139.8452  142.7082  165.3791 C.ar    1  UNL1       -0.0158
     21 C         139.7650  144.1613  165.7423 C.ar    1  UNL1       -0.0039
     22 C         138.5154  144.9388  165.4529 C.ar    1  UNL1       -0.0003
     23 C         137.3459  144.2633  164.8004 C.ar    1  UNL1       -0.0000
     24 C         137.4261  142.8101  164.4372 C.ar    1  UNL1       -0.0003
     25 C         138.6757  142.0326  164.7265 C.ar    1  UNL1       -0.0039
     26 C         140.6601  141.7623  167.0941 C.ar    1  UNL1       -0.0158
     27 C         140.9702  142.8275  168.1036 C.ar    1  UNL1       -0.0039
     28 C         140.5354  142.6594  169.5292 C.ar    1  UNL1       -0.0003
     29 C         139.7903  141.4258  169.9455 C.ar    1  UNL1       -0.0000
     30 C         139.4801  140.3606  168.9361 C.ar    1  UNL1       -0.0003
     31 C         139.9150  140.5288  167.5104 C.ar    1  UNL1       -0.0039
     32 N         144.3568  142.3461  157.9206 N.3     1  UNL1       -0.2697
     33 C         143.1636  142.9102  157.2078 C.3     1  UNL1        0.1046
     34 C         143.2602  143.2741  155.7558 C.3     1  UNL1        0.1595
     35 O         144.5500  143.0738  155.0166 O.3     1  UNL1       -0.3508
     36 C         145.7432  142.5097  155.7295 C.3     1  UNL1        0.1595
     37 C         145.6465  142.1458  157.1814 C.3     1  UNL1        0.1046
@<TRIPOS>BOND
     1    14    15    2
     2     1    15    1
     3     1     2    1
     4     2     3    1
     5     3     4    1
     6     4    32    1
     7    32    33    1
     8    33    34    1
     9    34    35    1
    10    35    36    1
    11    36    37    1
    12     4     5    1
    13     5     6    1
    14     6     7    1
    15     7     8   ar
    16     8     9   ar
    17     9    10   ar
    18    10    11    1
    19    10    12   ar
    20    12    13   ar
    21    15    16   am
    22    16    17    1
    23    17    18    1
    24    18    20    1
    25    20    21   ar
    26    21    22   ar
    27    22    23   ar
    28    23    24   ar
    29    24    25   ar
    30    18    26    1
    31    26    27   ar
    32    27    28   ar
    33    28    29   ar
    34    29    30   ar
    35    30    31   ar
    36    18    19    1
    37     6     1    1
    38    13     7   ar
    39    19    16    1
    40    37    32    1
    41    25    20   ar
    42    31    26   ar
@<TRIPOS>MOLECULE
*****
 37 42 0 0 0
SMALL
GASTEIGER

@<TRIPOS>ATOM
      1 C         140.0095  143.7449  157.3779 C.3     1  UNL1        0.0808
      2 C         140.8702  144.8925  157.8163 C.3     1  UNL1        0.0108
      3 C         140.6874  146.2464  157.1970 C.3     1  UNL1        0.0165
      4 C         139.6440  146.4527  156.1393 C.3     1  UNL1        0.0580
      5 C         138.7833  145.3051  155.7009 C.3     1  UNL1        0.0208
      6 C         138.9661  143.9512  156.3202 C.3     1  UNL1        0.0323
      7 C         138.1054  142.8036  155.8818 C.ar    1  UNL1       -0.0220
      8 C         136.9994  142.3138  156.7690 C.ar    1  UNL1       -0.0038
      9 C         136.1387  141.1662  156.3306 C.ar    1  UNL1        0.0064
     10 C         136.3840  140.5083  155.0051 C.ar    1  UNL1        0.0345
     11 BR        135.5233  139.3607  154.5667 Br      1  UNL1       -0.0490
     12 C         137.4899  140.9980  154.1179 C.ar    1  UNL1        0.0064
     13 C         138.3506  142.1457  154.5563 C.ar    1  UNL1       -0.0038
     14 O         140.5778  141.2208  157.1416 O.2     1  UNL1       -0.2749
     15 C         140.1922  142.3909  157.9972 C.2     1  UNL1        0.2255
     16 N         139.9894  142.2072  159.4720 N.am    1  UNL1       -0.2781
     17 C         140.0779  141.0469  160.4184 C.3     1  UNL1        0.1031
     18 C         139.7024  141.9474  161.5577 C.3     1  UNL1        0.0742
     19 C         139.6139  143.1078  160.6113 C.3     1  UNL1        0.1031
     20 C         139.3270  142.8480  162.6970 C.ar    1  UNL1       -0.0158
     21 C         140.3941  143.5669  163.4679 C.ar    1  UNL1       -0.0039
     22 C         140.0187  144.4674  164.6072 C.ar    1  UNL1       -0.0003
     23 C         138.5760  144.6491  164.9756 C.ar    1  UNL1       -0.0000
     24 C         137.5088  143.9302  164.2047 C.ar    1  UNL1       -0.0003
     25 C         137.8843  143.0297  163.0654 C.ar    1  UNL1       -0.0039
     26 C         139.7910  140.7871  162.5041 C.ar    1  UNL1       -0.0158
     27 C         141.0966  140.4553  163.1638 C.ar    1  UNL1       -0.0039
     28 C         141.1853  139.2950  164.1103 C.ar    1  UNL1       -0.0003
     29 C         139.9683  138.4664  164.3971 C.ar    1  UNL1       -0.0000
     30 C         138.6626  138.7982  163.7374 C.ar    1  UNL1       -0.0003
     31 C         138.5739  139.9585  162.7909 C.ar    1  UNL1       -0.0039
     32 N         139.4613  147.8067  155.5201 N.3     1  UNL1       -0.2697
     33 C         138.6937  148.8682  156.2508 C.3     1  UNL1        0.1046
     34 C         138.5109  150.2222  155.6315 C.3     1  UNL1        0.1595
     35 O         139.0958  150.5145  154.2815 O.3     1  UNL1       -0.3508
     36 C         139.8635  149.4529  153.5508 C.3     1  UNL1        0.1595
     37 C         140.0461  148.0991  154.1701 C.3     1  UNL1        0.1046
@<TRIPOS>BOND
     1    14    15    2
     2     1    15    1
     3     1     2    1
     4     2     3    1
     5     3     4    1
     6     4    32    1
     7    32    33    1
     8    33    34    1
     9    34    35    1
    10    35    36    1
    11    36    37    1
    12     4     5    1
    13     5     6    1
    14     6     7    1
    15     7     8   ar
    16     8     9   ar
    17     9    10   ar
    18    10    11    1
    19    10    12   ar
    20    12    13   ar
    21    15    16   am
    22    16    17    1
    23    17    18    1
    24    18    20    1
    25    20    21   ar
    26    21    22   ar
    27    22    23   ar
    28    23    24   ar
    29    24    25   ar
    30    18    26    1
    31    26    27   ar
    32    27    28   ar
    33    28    29   ar
    34    29    30   ar
    35    30    31   ar
    36    18    19    1
    37     6     1    1
    38    13     7   ar
    39    19    16    1
    40    37    32    1
    41    25    20   ar
    42    31    26   ar
@<TRIPOS>MOLECULE
*****
 37 42 0 0 0
SMALL
GASTEIGER

@<TRIPOS>ATOM
      1 C         142.4524  139.5520  157.2384 C.3     1  UNL1        0.0808
      2 C         141.5416  138.4560  157.7066 C.3     1  UNL1        0.0108
      3 C         141.7071  137.0641  157.1727 C.3     1  UNL1        0.0165
      4 C         142.7835  136.7681  156.1708 C.3     1  UNL1        0.0580
      5 C         143.6943  137.8641  155.7027 C.3     1  UNL1        0.0208
      6 C         143.5288  139.2560  156.2365 C.3     1  UNL1        0.0323
      7 C         144.4396  140.3521  155.7684 C.ar    1  UNL1       -0.0220
      8 C         145.5389  140.8463  156.6613 C.ar    1  UNL1       -0.0038
      9 C         146.4497  141.9423  156.1932 C.ar    1  UNL1        0.0064
     10 C         146.2612  142.5442  154.8322 C.ar    1  UNL1        0.0345
     11 BR        147.1720  143.6403  154.3642 Br      1  UNL1       -0.0490
     12 C         145.1619  142.0500  153.9393 C.ar    1  UNL1        0.0064
     13 C         144.2511  140.9540  154.4074 C.ar    1  UNL1       -0.0038
     14 O         141.8847  142.0576  156.8513 O.2     1  UNL1       -0.2749
     15 C         142.2869  140.9440  157.7723 C.2     1  UNL1        0.2255
     16 N         142.5236  141.2224  159.2271 N.am    1  UNL1       -0.2781
     17 C         142.4593  142.4421  160.0978 C.3     1  UNL1        0.1031
     18 C         142.8584  141.6161  161.2845 C.3     1  UNL1        0.0742
     19 C         142.9228  140.3964  160.4139 C.3     1  UNL1        0.1031
     20 C         143.2575  140.7901  162.4713 C.ar    1  UNL1       -0.0158
     21 C         144.6979  140.7158  162.8831 C.ar    1  UNL1       -0.0039
     22 C         145.0970  139.8898  164.0698 C.ar    1  UNL1       -0.0003
     23 C         144.0557  139.1380  164.8447 C.ar    1  UNL1       -0.0000
     24 C         142.6153  139.2123  164.4329 C.ar    1  UNL1       -0.0003
     25 C         142.2162  140.0383  163.2462 C.ar    1  UNL1       -0.0039
     26 C         142.7940  142.8358  162.1552 C.ar    1  UNL1       -0.0158
     27 C         141.5362  143.1545  162.9078 C.ar    1  UNL1       -0.0039
     28 C         141.4717  144.3742  163.7785 C.ar    1  UNL1       -0.0003
     29 C         142.6651  145.2753  163.8967 C.ar    1  UNL1       -0.0000
     30 C         143.9229  144.9566  163.1441 C.ar    1  UNL1       -0.0003
     31 C         143.9874  143.7369  162.2734 C.ar    1  UNL1       -0.0039
     32 N         142.9490  135.3761  155.6369 N.3     1  UNL1       -0.2697
     33 C         143.7483  134.3674  156.4074 C.3     1  UNL1        0.1046
     34 C         143.9138  132.9754  155.8736 C.3     1  UNL1        0.1595
     35 O         143.2799  132.5921  154.5692 O.3     1  UNL1       -0.3508
     36 C         142.4806  133.6008  153.7987 C.3     1  UNL1        0.1595
     37 C         142.3151  134.9927  154.3326 C.3     1  UNL1        0.1046
@<TRIPOS>BOND
     1    14    15    2
     2     1    15    1
     3     1     2    1
     4     2     3    1
     5     3     4    1
     6     4    32    1
     7    32    33    1
     8    33    34    1
     9    34    35    1
    10    35    36    1
    11    36    37    1
    12     4     5    1
    13     5     6    1
    14     6     7    1
    15     7     8   ar
    16     8     9   ar
    17     9    10   ar
    18    10    11    1
    19    10    12   ar
    20    12    13   ar
    21    15    16   am
    22    16    17    1
    23    17    18    1
    24    18    20    1
    25    20    21   ar
    26    21    22   ar
    27    22    23   ar
    28    23    24   ar
    29    24    25   ar
    30    18    26    1
    31    26    27   ar
    32    27    28   ar
    33    28    29   ar
    34    29    30   ar
    35    30    31   ar
    36    18    19    1
    37     6     1    1
    38    13     7   ar
    39    19    16    1
    40    37    32    1
    41    25    20   ar
    42    31    26   ar
