@<TRIPOS>MOLECULE
*****
 42 45 0 0 0
SMALL
GASTEIGER

@<TRIPOS>ATOM
      1 C         143.1184  138.4309  160.3917 C.3     1  UNL1        0.2551
      2 N         142.7971  137.5704  159.2058 N.2     1  UNL1       -0.2434
      3 C         142.8749  137.9190  157.7490 C.2     1  UNL1        0.0795
      4 C         143.2931  139.2141  157.1181 C.ar    1  UNL1        0.0310
      5 C         143.2280  139.1408  155.6214 C.ar    1  UNL1        0.0027
      6 C         143.6067  140.3339  154.7950 C.ar    1  UNL1        0.0001
      7 C         144.0506  141.6003  155.4653 C.ar    1  UNL1        0.0013
      8 C         144.1157  141.6735  156.9620 C.ar    1  UNL1        0.0150
      9 C         143.7370  140.4804  157.7885 C.ar    1  UNL1        0.0556
     10 N         143.8721  140.7645  159.2551 N.am    1  UNL1       -0.2474
     11 C         143.5969  139.8524  160.4137 C.2     1  UNL1        0.2714
     12 O         143.8310  140.4393  161.7741 O.2     1  UNL1       -0.2705
     13 C         142.4824  136.8283  156.7969 C.ar    1  UNL1        0.0174
     14 C         141.0859  136.7750  156.2519 C.ar    1  UNL1        0.0015
     15 C         140.6935  135.6843  155.2999 C.ar    1  UNL1        0.0000
     16 C         141.6976  134.6468  154.8929 C.ar    1  UNL1        0.0000
     17 C         143.0940  134.7001  155.4379 C.ar    1  UNL1        0.0000
     18 C         143.4865  135.7908  156.3899 C.ar    1  UNL1        0.0015
     19 O         140.5922  138.8820  161.9456 O.2     1  UNL1       -0.2747
     20 C         141.6743  138.0099  162.5100 C.2     1  UNL1        0.2285
     21 N         142.9374  137.7843  161.7331 N.am    1  UNL1       -0.2795
     22 H         143.6476  137.2119  162.1035 H       1  UNL1        0.1516
     23 C         141.4933  137.3633  163.8514 C.3     1  UNL1        0.1113
     24 C         141.0407  138.1823  165.0238 C.ar    1  UNL1       -0.0092
     25 C         139.5793  138.2889  165.3447 C.ar    1  UNL1       -0.0039
     26 C         139.1267  139.1079  166.5171 C.ar    1  UNL1        0.0035
     27 C         140.1355  139.8203  167.3685 C.ar    1  UNL1        0.0714
     28 C         141.5969  139.7136  167.0475 C.ar    1  UNL1        0.0074
     29 C         142.0495  138.8947  165.8751 C.ar    1  UNL1        0.0679
     30 C         139.6830  140.6392  168.5409 C.3     1  UNL1        0.4186
     31 F         139.2305  141.4582  169.7132 F       1  UNL1       -0.1659
     32 F         138.5119  139.7213  168.7301 F       1  UNL1       -0.1659
     33 F         140.8541  141.5572  168.3517 F       1  UNL1       -0.1659
     34 C         143.5109  138.7880  165.5541 C.3     1  UNL1        0.4183
     35 F         144.9722  138.6814  165.2331 F       1  UNL1       -0.1659
     36 F         143.4149  140.0223  164.7072 F       1  UNL1       -0.1659
     37 F         143.6069  137.5538  166.4011 F       1  UNL1       -0.1659
     38 C         144.3451  142.1429  159.6102 C.3     1  UNL1        0.2017
     39 C         143.3920  143.1301  160.2162 C.3     1  UNL1        0.4160
     40 F         142.4390  144.1172  160.8221 F       1  UNL1       -0.1682
     41 F         142.1826  143.0567  159.3319 F       1  UNL1       -0.1682
     42 F         144.4008  143.4519  161.2786 F       1  UNL1       -0.1682
@<TRIPOS>BOND
     1    19    20    2
     2    20    23    1
     3    23    24    1
     4    24    25   ar
     5    25    26   ar
     6    26    27   ar
     7    27    30    1
     8    30    31    1
     9    30    32    1
    10    30    33    1
    11    27    28   ar
    12    28    29   ar
    13    29    34    1
    14    34    35    1
    15    34    36    1
    16    34    37    1
    17    20    21   am
    18     1    21    1
    19     1     2    1
    20     2     3    2
    21     3    13    1
    22    13    14   ar
    23    14    15   ar
    24    15    16   ar
    25    16    17   ar
    26    17    18   ar
    27     3     4    1
    28     4     5   ar
    29     5     6   ar
    30     6     7   ar
    31     7     8   ar
    32     8     9   ar
    33     9    10    1
    34    10    38    1
    35    38    39    1
    36    39    40    1
    37    39    41    1
    38    39    42    1
    39    10    11   am
    40    11    12    2
    41    29    24   ar
    42    11     1    1
    43    18    13   ar
    44     9     4   ar
    45    21    22    1
@<TRIPOS>MOLECULE
*****
 42 45 0 0 0
SMALL
GASTEIGER

@<TRIPOS>ATOM
      1 C         142.9851  138.3782  160.2533 C.3     1  UNL1        0.2551
      2 N         142.7176  137.4898  159.0746 N.2     1  UNL1       -0.2434
      3 C         142.8608  137.8044  157.6150 C.2     1  UNL1        0.0795
      4 C         143.3069  139.0848  156.9734 C.ar    1  UNL1        0.0310
      5 C         143.3092  138.9765  155.4774 C.ar    1  UNL1        0.0027
      6 C         143.7246  140.1504  154.6411 C.ar    1  UNL1        0.0001
      7 C         144.1376  141.4326  155.3009 C.ar    1  UNL1        0.0013
      8 C         144.1353  141.5409  156.7969 C.ar    1  UNL1        0.0150
      9 C         143.7200  140.3670  157.6332 C.ar    1  UNL1        0.0556
     10 N         143.7890  140.6854  159.0974 N.am    1  UNL1       -0.2474
     11 C         143.4620  139.8004  160.2635 C.2     1  UNL1        0.2714
     12 O         143.6346  140.4192  161.6189 O.2     1  UNL1       -0.2705
     13 C         142.5117  136.6912  156.6721 C.ar    1  UNL1        0.0174
     14 C         141.1384  136.6186  156.0731 C.ar    1  UNL1        0.0015
     15 C         140.7893  135.5054  155.1302 C.ar    1  UNL1        0.0000
     16 C         141.8136  134.4649  154.7863 C.ar    1  UNL1        0.0000
     17 C         143.1868  134.5376  155.3851 C.ar    1  UNL1        0.0000
     18 C         143.5360  135.6507  156.3280 C.ar    1  UNL1        0.0015
     19 O         140.3153  138.6857  161.5865 O.2     1  UNL1       -0.2747
     20 C         141.4091  137.9167  162.2665 C.2     1  UNL1        0.2285
     21 N         142.7440  137.7630  161.5999 N.am    1  UNL1       -0.2795
     22 H         143.4619  137.2583  162.0462 H       1  UNL1        0.1516
     23 C         141.1680  137.3015  163.6131 C.3     1  UNL1        0.1113
     24 C         141.5625  138.0411  164.8571 C.ar    1  UNL1       -0.0092
     25 C         142.9353  137.8600  165.4338 C.ar    1  UNL1       -0.0039
     26 C         143.3299  138.5996  166.6777 C.ar    1  UNL1        0.0035
     27 C         142.3515  139.5202  167.3450 C.ar    1  UNL1        0.0714
     28 C         140.9787  139.7013  166.7683 C.ar    1  UNL1        0.0074
     29 C         140.5842  138.9617  165.5244 C.ar    1  UNL1        0.0679
     30 C         142.7460  140.2598  168.5889 C.3     1  UNL1        0.4186
     31 F         143.1405  140.9994  169.8328 F       1  UNL1       -0.1659
     32 F         142.4729  139.0317  169.4057 F       1  UNL1       -0.1659
     33 F         143.0191  141.4879  167.7722 F       1  UNL1       -0.1659
     34 C         139.2113  139.1428  164.9477 C.3     1  UNL1        0.4183
     35 F         137.8385  139.3238  164.3710 F       1  UNL1       -0.1659
     36 F         138.7321  137.9446  165.7123 F       1  UNL1       -0.1659
     37 F         139.6905  140.3410  164.1830 F       1  UNL1       -0.1659
     38 C         144.2454  142.0724  159.4410 C.3     1  UNL1        0.2017
     39 C         143.2555  143.0885  159.9288 C.3     1  UNL1        0.4160
     40 F         142.2657  144.1045  160.4166 F       1  UNL1       -0.1682
     41 F         142.1173  142.9817  158.9577 F       1  UNL1       -0.1682
     42 F         144.1818  143.4518  161.0513 F       1  UNL1       -0.1682
@<TRIPOS>BOND
     1    19    20    2
     2    20    23    1
     3    23    24    1
     4    24    25   ar
     5    25    26   ar
     6    26    27   ar
     7    27    30    1
     8    30    31    1
     9    30    32    1
    10    30    33    1
    11    27    28   ar
    12    28    29   ar
    13    29    34    1
    14    34    35    1
    15    34    36    1
    16    34    37    1
    17    20    21   am
    18     1    21    1
    19     1     2    1
    20     2     3    2
    21     3    13    1
    22    13    14   ar
    23    14    15   ar
    24    15    16   ar
    25    16    17   ar
    26    17    18   ar
    27     3     4    1
    28     4     5   ar
    29     5     6   ar
    30     6     7   ar
    31     7     8   ar
    32     8     9   ar
    33     9    10    1
    34    10    38    1
    35    38    39    1
    36    39    40    1
    37    39    41    1
    38    39    42    1
    39    10    11   am
    40    11    12    2
    41    29    24   ar
    42    11     1    1
    43    18    13   ar
    44     9     4   ar
    45    21    22    1
@<TRIPOS>MOLECULE
*****
 42 45 0 0 0
SMALL
GASTEIGER

@<TRIPOS>ATOM
      1 C         140.5434  139.1034  158.6219 C.3     1  UNL1        0.2551
      2 N         140.8854  137.8400  157.8892 N.2     1  UNL1       -0.2434
      3 C         142.0010  137.5958  156.9166 C.2     1  UNL1        0.0795
      4 C         143.0500  138.5545  156.4365 C.ar    1  UNL1        0.0310
      5 C         143.9826  137.9022  155.4595 C.ar    1  UNL1        0.0027
      6 C         145.1078  138.6897  154.8564 C.ar    1  UNL1        0.0001
      7 C         145.3004  140.1295  155.2304 C.ar    1  UNL1        0.0013
      8 C         144.3677  140.7818  156.2074 C.ar    1  UNL1        0.0150
      9 C         143.2425  139.9943  156.8104 C.ar    1  UNL1        0.0556
     10 N         142.4336  140.8309  157.7568 N.am    1  UNL1       -0.2474
     11 C         141.2324  140.4345  158.5631 C.2     1  UNL1        0.2714
     12 O         140.6421  141.5115  159.4242 O.2     1  UNL1       -0.2705
     13 C         142.0777  136.2094  156.3490 C.ar    1  UNL1        0.0174
     14 C         142.9720  135.1869  156.9853 C.ar    1  UNL1        0.0015
     15 C         143.0487  133.8005  156.4177 C.ar    1  UNL1        0.0000
     16 C         142.2311  133.4367  155.2138 C.ar    1  UNL1        0.0000
     17 C         141.3369  134.4591  154.5776 C.ar    1  UNL1        0.0000
     18 C         141.2601  135.8455  155.1451 C.ar    1  UNL1        0.0015
     19 O         140.7997  137.7967  161.3102 O.2     1  UNL1       -0.2747
     20 C         139.4834  138.3720  160.8783 C.2     1  UNL1        0.2285
     21 N         139.3553  139.0253  159.5342 N.am    1  UNL1       -0.2795
     22 H         138.4914  139.4029  159.2507 H       1  UNL1        0.1516
     23 C         138.2952  138.2939  161.7906 C.3     1  UNL1        0.1113
     24 C         138.4421  138.6343  163.2441 C.ar    1  UNL1       -0.0092
     25 C         138.6593  137.5442  164.2514 C.ar    1  UNL1       -0.0039
     26 C         138.8061  137.8846  165.7049 C.ar    1  UNL1        0.0035
     27 C         138.7357  139.3149  166.1511 C.ar    1  UNL1        0.0714
     28 C         138.5185  140.4050  165.1437 C.ar    1  UNL1        0.0074
     29 C         138.3717  140.0646  163.6903 C.ar    1  UNL1        0.0679
     30 C         138.8825  139.6553  167.6046 C.3     1  UNL1        0.4186
     31 F         139.0293  139.9956  169.0580 F       1  UNL1       -0.1659
     32 F         140.1044  140.4668  167.2911 F       1  UNL1       -0.1659
     33 F         137.6606  138.8438  167.9180 F       1  UNL1       -0.1659
     34 C         138.1545  141.1547  162.6829 C.3     1  UNL1        0.4183
     35 F         137.9373  142.2447  161.6756 F       1  UNL1       -0.1659
     36 F         139.6318  141.2155  162.4303 F       1  UNL1       -0.1659
     37 F         136.6772  141.0939  162.9356 F       1  UNL1       -0.1659
     38 C         142.8857  142.2520  157.9184 C.3     1  UNL1        0.2017
     39 C         143.5545  142.6866  159.1889 C.3     1  UNL1        0.4160
     40 F         144.2234  143.1210  160.4592 F       1  UNL1       -0.1682
     41 F         144.4093  141.5138  159.5684 F       1  UNL1       -0.1682
     42 F         142.8404  144.0035  159.1144 F       1  UNL1       -0.1682
@<TRIPOS>BOND
     1    19    20    2
     2    20    23    1
     3    23    24    1
     4    24    25   ar
     5    25    26   ar
     6    26    27   ar
     7    27    30    1
     8    30    31    1
     9    30    32    1
    10    30    33    1
    11    27    28   ar
    12    28    29   ar
    13    29    34    1
    14    34    35    1
    15    34    36    1
    16    34    37    1
    17    20    21   am
    18     1    21    1
    19     1     2    1
    20     2     3    2
    21     3    13    1
    22    13    14   ar
    23    14    15   ar
    24    15    16   ar
    25    16    17   ar
    26    17    18   ar
    27     3     4    1
    28     4     5   ar
    29     5     6   ar
    30     6     7   ar
    31     7     8   ar
    32     8     9   ar
    33     9    10    1
    34    10    38    1
    35    38    39    1
    36    39    40    1
    37    39    41    1
    38    39    42    1
    39    10    11   am
    40    11    12    2
    41    29    24   ar
    42    11     1    1
    43    18    13   ar
    44     9     4   ar
    45    21    22    1
@<TRIPOS>MOLECULE
*****
 42 45 0 0 0
SMALL
GASTEIGER

@<TRIPOS>ATOM
      1 C         140.1183  144.5364  159.1254 C.3     1  UNL1        0.2551
      2 N         140.0480  145.6273  158.0982 N.2     1  UNL1       -0.2434
      3 C         139.3204  145.6312  156.7865 C.2     1  UNL1        0.0795
      4 C         138.4833  144.5453  156.1781 C.ar    1  UNL1        0.0310
      5 C         137.9325  144.9594  154.8457 C.ar    1  UNL1        0.0027
      6 C         137.0656  144.0155  154.0664 C.ar    1  UNL1        0.0001
      7 C         136.7494  142.6575  154.6194 C.ar    1  UNL1        0.0013
      8 C         137.3001  142.2434  155.9517 C.ar    1  UNL1        0.0150
      9 C         138.1671  143.1873  156.7310 C.ar    1  UNL1        0.0556
     10 N         138.6099  142.5798  158.0291 N.am    1  UNL1       -0.2474
     11 C         139.4783  143.1801  159.0947 C.2     1  UNL1        0.2714
     12 O         139.7414  142.3091  160.2872 O.2     1  UNL1       -0.2705
     13 C         139.4465  146.8871  155.9761 C.ar    1  UNL1        0.0174
     14 C         138.7247  148.1308  156.4030 C.ar    1  UNL1        0.0015
     15 C         138.8508  149.3867  155.5925 C.ar    1  UNL1        0.0000
     16 C         139.6987  149.3989  154.3552 C.ar    1  UNL1        0.0000
     17 C         140.4205  148.1553  153.9284 C.ar    1  UNL1        0.0000
     18 C         140.2944  146.8993  154.7387 C.ar    1  UNL1        0.0015
     19 O         138.7682  145.4093  161.6583 O.2     1  UNL1       -0.2747
     20 C         140.2618  145.2787  161.6110 C.2     1  UNL1        0.2285
     21 N         140.9368  144.8423  160.3446 N.am    1  UNL1       -0.2795
     22 H         141.9171  144.7566  160.3136 H       1  UNL1        0.1516
     23 C         141.0803  145.5846  162.8302 C.3     1  UNL1        0.1113
     24 C         141.1779  144.5797  163.9396 C.ar    1  UNL1       -0.0092
     25 C         139.9883  144.3075  164.8118 C.ar    1  UNL1       -0.0039
     26 C         140.0858  143.3025  165.9212 C.ar    1  UNL1        0.0035
     27 C         141.3730  142.5698  166.1583 C.ar    1  UNL1        0.0714
     28 C         142.5627  142.8420  165.2860 C.ar    1  UNL1        0.0074
     29 C         142.4651  143.8469  164.1767 C.ar    1  UNL1        0.0679
     30 C         141.4706  141.5649  167.2676 C.3     1  UNL1        0.4186
     31 F         141.5682  140.5600  168.3769 F       1  UNL1       -0.1659
     32 F         139.9783  141.5858  167.4178 F       1  UNL1       -0.1659
     33 F         142.9629  141.5440  167.1174 F       1  UNL1       -0.1659
     34 C         143.6547  144.1191  163.3045 C.3     1  UNL1        0.4183
     35 F         144.8442  144.3912  162.4322 F       1  UNL1       -0.1659
     36 F         143.2094  143.0414  162.3609 F       1  UNL1       -0.1659
     37 F         144.1000  145.1968  164.2480 F       1  UNL1       -0.1659
     38 C         138.1195  141.1877  158.2969 C.3     1  UNL1        0.2017
     39 C         139.0521  140.0223  158.1480 C.3     1  UNL1        0.4160
     40 F         139.9846  138.8570  157.9992 F       1  UNL1       -0.1682
     41 F         139.8900  140.3780  156.9559 F       1  UNL1       -0.1682
     42 F         138.4210  139.3651  159.3396 F       1  UNL1       -0.1682
@<TRIPOS>BOND
     1    19    20    2
     2    20    23    1
     3    23    24    1
     4    24    25   ar
     5    25    26   ar
     6    26    27   ar
     7    27    30    1
     8    30    31    1
     9    30    32    1
    10    30    33    1
    11    27    28   ar
    12    28    29   ar
    13    29    34    1
    14    34    35    1
    15    34    36    1
    16    34    37    1
    17    20    21   am
    18     1    21    1
    19     1     2    1
    20     2     3    2
    21     3    13    1
    22    13    14   ar
    23    14    15   ar
    24    15    16   ar
    25    16    17   ar
    26    17    18   ar
    27     3     4    1
    28     4     5   ar
    29     5     6   ar
    30     6     7   ar
    31     7     8   ar
    32     8     9   ar
    33     9    10    1
    34    10    38    1
    35    38    39    1
    36    39    40    1
    37    39    41    1
    38    39    42    1
    39    10    11   am
    40    11    12    2
    41    29    24   ar
    42    11     1    1
    43    18    13   ar
    44     9     4   ar
    45    21    22    1
@<TRIPOS>MOLECULE
*****
 42 45 0 0 0
SMALL
GASTEIGER

@<TRIPOS>ATOM
      1 C         139.9903  143.5888  159.7372 C.3     1  UNL1        0.2551
      2 N         140.0978  144.4525  158.5154 N.2     1  UNL1       -0.2434
      3 C         139.4659  144.2521  157.1699 C.2     1  UNL1        0.0795
      4 C         138.5703  143.1386  156.7137 C.ar    1  UNL1        0.0310
      5 C         138.1556  143.3198  155.2837 C.ar    1  UNL1        0.0027
      6 C         137.2560  142.3129  154.6303 C.ar    1  UNL1        0.0001
      7 C         136.7713  141.1247  155.4070 C.ar    1  UNL1        0.0013
      8 C         137.1860  140.9435  156.8371 C.ar    1  UNL1        0.0150
      9 C         138.0856  141.9504  157.4904 C.ar    1  UNL1        0.0556
     10 N         138.3766  141.5824  158.9152 N.am    1  UNL1       -0.2474
     11 C         139.2243  142.3115  159.9151 C.2     1  UNL1        0.2714
     12 O         139.3184  141.6798  161.2723 O.2     1  UNL1       -0.2705
     13 C         139.7696  145.3044  156.1450 C.ar    1  UNL1        0.0174
     14 C         138.9645  146.5695  156.1076 C.ar    1  UNL1        0.0015
     15 C         139.2682  147.6218  155.0827 C.ar    1  UNL1        0.0000
     16 C         140.3771  147.4089  154.0952 C.ar    1  UNL1        0.0000
     17 C         141.1821  146.1439  154.1325 C.ar    1  UNL1        0.0000
     18 C         140.8785  145.0916  155.1574 C.ar    1  UNL1        0.0015
     19 O         138.5771  145.1299  161.8884 O.2     1  UNL1       -0.2747
     20 C         140.0426  144.8361  162.0156 C.2     1  UNL1        0.2285
     21 N         140.7491  144.0656  160.9400 N.am    1  UNL1       -0.2795
     22 H         141.7109  143.8727  161.0235 H       1  UNL1        0.1516
     23 C         140.8014  145.3128  163.2185 C.3     1  UNL1        0.1113
     24 C         141.2575  144.3298  164.2557 C.ar    1  UNL1       -0.0092
     25 C         142.7083  143.9617  164.3535 C.ar    1  UNL1       -0.0039
     26 C         143.1644  142.9786  165.3906 C.ar    1  UNL1        0.0035
     27 C         142.1696  142.3637  166.3299 C.ar    1  UNL1        0.0714
     28 C         140.7188  142.7318  166.2321 C.ar    1  UNL1        0.0074
     29 C         140.2627  143.7148  165.1950 C.ar    1  UNL1        0.0679
     30 C         142.6257  141.3806  167.3670 C.3     1  UNL1        0.4186
     31 F         143.0817  140.3976  168.4041 F       1  UNL1       -0.1659
     32 F         143.5202  142.4260  167.9645 F       1  UNL1       -0.1659
     33 F         141.7311  140.3353  166.7696 F       1  UNL1       -0.1659
     34 C         138.8118  144.0830  165.0971 C.3     1  UNL1        0.4183
     35 F         137.3611  144.4512  164.9993 F       1  UNL1       -0.1659
     36 F         139.0571  145.2804  165.9666 F       1  UNL1       -0.1659
     37 F         138.5666  142.8856  164.2277 F       1  UNL1       -0.1659
     38 C         137.7352  140.3179  159.4047 C.3     1  UNL1        0.2017
     39 C         138.5883  139.1566  159.8213 C.3     1  UNL1        0.4160
     40 F         139.4415  137.9953  160.2379 F       1  UNL1       -0.1682
     41 F         139.6505  139.0890  158.7644 F       1  UNL1       -0.1682
     42 F         137.7063  138.9367  161.0145 F       1  UNL1       -0.1682
@<TRIPOS>BOND
     1    19    20    2
     2    20    23    1
     3    23    24    1
     4    24    25   ar
     5    25    26   ar
     6    26    27   ar
     7    27    30    1
     8    30    31    1
     9    30    32    1
    10    30    33    1
    11    27    28   ar
    12    28    29   ar
    13    29    34    1
    14    34    35    1
    15    34    36    1
    16    34    37    1
    17    20    21   am
    18     1    21    1
    19     1     2    1
    20     2     3    2
    21     3    13    1
    22    13    14   ar
    23    14    15   ar
    24    15    16   ar
    25    16    17   ar
    26    17    18   ar
    27     3     4    1
    28     4     5   ar
    29     5     6   ar
    30     6     7   ar
    31     7     8   ar
    32     8     9   ar
    33     9    10    1
    34    10    38    1
    35    38    39    1
    36    39    40    1
    37    39    41    1
    38    39    42    1
    39    10    11   am
    40    11    12    2
    41    29    24   ar
    42    11     1    1
    43    18    13   ar
    44     9     4   ar
    45    21    22    1
@<TRIPOS>MOLECULE
*****
 42 45 0 0 0
SMALL
GASTEIGER

@<TRIPOS>ATOM
      1 C         139.1570  141.4100  160.3148 C.3     1  UNL1        0.2551
      2 N         138.4390  140.9242  159.0906 N.2     1  UNL1       -0.2434
      3 C         138.3144  141.5916  157.7530 C.2     1  UNL1        0.0795
      4 C         138.8770  142.9093  157.3092 C.ar    1  UNL1        0.0310
      5 C         138.5166  143.2070  155.8839 C.ar    1  UNL1        0.0027
      6 C         138.9823  144.4806  155.2429 C.ar    1  UNL1        0.0001
      7 C         139.8084  145.4565  156.0271 C.ar    1  UNL1        0.0013
      8 C         140.1689  145.1589  157.4523 C.ar    1  UNL1        0.0150
      9 C         139.7032  143.8853  158.0934 C.ar    1  UNL1        0.0556
     10 N         140.1707  143.7845  159.5151 N.am    1  UNL1       -0.2474
     11 C         139.9277  142.6829  160.5038 C.2     1  UNL1        0.2714
     12 O         140.5357  142.8803  161.8607 O.2     1  UNL1       -0.2705
     13 C         137.5225  140.8419  156.7230 C.ar    1  UNL1        0.0174
     14 C         138.2202  139.9288  155.7589 C.ar    1  UNL1        0.0015
     15 C         137.4283  139.1792  154.7289 C.ar    1  UNL1        0.0000
     16 C         135.9387  139.3427  154.6629 C.ar    1  UNL1        0.0000
     17 C         135.2410  140.2558  155.6269 C.ar    1  UNL1        0.0000
     18 C         136.0328  141.0054  156.6570 C.ar    1  UNL1        0.0015
     19 O         137.2601  142.0099  162.5603 O.2     1  UNL1       -0.2747
     20 C         138.1478  140.8027  162.6306 C.2     1  UNL1        0.2285
     21 N         139.0962  140.5028  161.5078 N.am    1  UNL1       -0.2795
     22 H         139.6788  139.7105  161.5540 H       1  UNL1        0.1516
     23 C         138.0870  139.8955  163.8236 C.3     1  UNL1        0.1113
     24 C         138.7436  140.3025  165.1095 C.ar    1  UNL1       -0.0092
     25 C         139.3194  141.6799  165.2545 C.ar    1  UNL1       -0.0039
     26 C         139.9760  142.0868  166.5403 C.ar    1  UNL1        0.0035
     27 C         140.0567  141.1163  167.6812 C.ar    1  UNL1        0.0714
     28 C         139.4808  139.7388  167.5361 C.ar    1  UNL1        0.0074
     29 C         138.8243  139.3319  166.2503 C.ar    1  UNL1        0.0679
     30 C         140.7132  141.5232  168.9670 C.3     1  UNL1        0.4186
     31 F         141.3697  141.9301  170.2528 F       1  UNL1       -0.1659
     32 F         140.4330  142.9632  168.6544 F       1  UNL1       -0.1659
     33 F         140.9934  140.0832  169.2796 F       1  UNL1       -0.1659
     34 C         138.2484  137.9544  166.1053 C.3     1  UNL1        0.4183
     35 F         137.6726  136.5770  165.9602 F       1  UNL1       -0.1659
     36 F         139.4068  137.5616  165.2370 F       1  UNL1       -0.1659
     37 F         137.0901  138.3472  166.9736 F       1  UNL1       -0.1659
     38 C         140.9897  144.9378  160.0142 C.3     1  UNL1        0.2017
     39 C         140.4156  145.8821  161.0286 C.3     1  UNL1        0.4160
     40 F         139.8415  146.8262  162.0429 F       1  UNL1       -0.1682
     41 F         139.2714  146.5343  160.3106 F       1  UNL1       -0.1682
     42 F         141.4516  145.4453  162.0214 F       1  UNL1       -0.1682
@<TRIPOS>BOND
     1    19    20    2
     2    20    23    1
     3    23    24    1
     4    24    25   ar
     5    25    26   ar
     6    26    27   ar
     7    27    30    1
     8    30    31    1
     9    30    32    1
    10    30    33    1
    11    27    28   ar
    12    28    29   ar
    13    29    34    1
    14    34    35    1
    15    34    36    1
    16    34    37    1
    17    20    21   am
    18     1    21    1
    19     1     2    1
    20     2     3    2
    21     3    13    1
    22    13    14   ar
    23    14    15   ar
    24    15    16   ar
    25    16    17   ar
    26    17    18   ar
    27     3     4    1
    28     4     5   ar
    29     5     6   ar
    30     6     7   ar
    31     7     8   ar
    32     8     9   ar
    33     9    10    1
    34    10    38    1
    35    38    39    1
    36    39    40    1
    37    39    41    1
    38    39    42    1
    39    10    11   am
    40    11    12    2
    41    29    24   ar
    42    11     1    1
    43    18    13   ar
    44     9     4   ar
    45    21    22    1
@<TRIPOS>MOLECULE
*****
 42 45 0 0 0
SMALL
GASTEIGER

@<TRIPOS>ATOM
      1 C         139.0120  141.5066  161.1783 C.3     1  UNL1        0.2551
      2 N         138.5844  141.0533  159.8138 N.2     1  UNL1       -0.2434
      3 C         138.6954  141.7837  158.5084 C.2     1  UNL1        0.0795
      4 C         139.2613  143.1477  158.2449 C.ar    1  UNL1        0.0310
      5 C         139.1800  143.5030  156.7899 C.ar    1  UNL1        0.0027
      6 C         139.6934  144.8289  156.3119 C.ar    1  UNL1        0.0001
      7 C         140.2881  145.7993  157.2889 C.ar    1  UNL1        0.0013
      8 C         140.3694  145.4440  158.7439 C.ar    1  UNL1        0.0150
      9 C         139.8559  144.1182  159.2219 C.ar    1  UNL1        0.0556
     10 N         140.0316  143.9643  160.7037 N.am    1  UNL1       -0.2474
     11 C         139.6560  142.8021  161.5744 C.2     1  UNL1        0.2714
     12 O         139.9654  142.9557  163.0340 O.2     1  UNL1       -0.2705
     13 C         138.1712  141.0536  157.3075 C.ar    1  UNL1        0.0174
     14 C         139.0567  140.0964  156.5661 C.ar    1  UNL1        0.0015
     15 C         138.5325  139.3663  155.3652 C.ar    1  UNL1        0.0000
     16 C         137.1227  139.5933  154.9058 C.ar    1  UNL1        0.0000
     17 C         136.2372  140.5503  155.6472 C.ar    1  UNL1        0.0000
     18 C         136.7614  141.2805  156.8481 C.ar    1  UNL1        0.0015
     19 O         140.8532  139.1715  161.5751 O.2     1  UNL1       -0.2747
     20 C         139.6830  139.3684  162.4928 C.2     1  UNL1        0.2285
     21 N         138.7624  140.5359  162.2944 N.am    1  UNL1       -0.2795
     22 H         137.9945  140.6652  162.8967 H       1  UNL1        0.1516
     23 C         139.4335  138.3977  163.6089 C.3     1  UNL1        0.1113
     24 C         139.5121  138.8577  165.0345 C.ar    1  UNL1       -0.0092
     25 C         138.2639  138.9579  165.8602 C.ar    1  UNL1       -0.0039
     26 C         138.3426  139.4179  167.2858 C.ar    1  UNL1        0.0035
     27 C         139.6695  139.7776  167.8857 C.ar    1  UNL1        0.0714
     28 C         140.9178  139.6773  167.0599 C.ar    1  UNL1        0.0074
     29 C         140.8391  139.2174  165.6343 C.ar    1  UNL1        0.0679
     30 C         139.7483  140.2375  169.3112 C.3     1  UNL1        0.4186
     31 F         139.8270  140.6974  170.7367 F       1  UNL1       -0.1659
     32 F         138.2899  139.9353  169.4892 F       1  UNL1       -0.1659
     33 F         141.2066  140.5397  169.1332 F       1  UNL1       -0.1659
     34 C         142.0874  139.1171  164.8086 C.3     1  UNL1        0.4183
     35 F         143.3356  139.0168  163.9829 F       1  UNL1       -0.1659
     36 F         142.1991  137.6618  165.1542 F       1  UNL1       -0.1659
     37 F         141.9757  140.5724  164.4629 F       1  UNL1       -0.1659
     38 C         140.6669  145.1265  161.4078 C.3     1  UNL1        0.2017
     39 C         141.9638  144.9427  162.1389 C.3     1  UNL1        0.4160
     40 F         143.2606  144.7590  162.8699 F       1  UNL1       -0.1682
     41 F         141.7284  145.6002  163.4664 F       1  UNL1       -0.1682
     42 F         142.5297  144.2193  160.9530 F       1  UNL1       -0.1682
@<TRIPOS>BOND
     1    19    20    2
     2    20    23    1
     3    23    24    1
     4    24    25   ar
     5    25    26   ar
     6    26    27   ar
     7    27    30    1
     8    30    31    1
     9    30    32    1
    10    30    33    1
    11    27    28   ar
    12    28    29   ar
    13    29    34    1
    14    34    35    1
    15    34    36    1
    16    34    37    1
    17    20    21   am
    18     1    21    1
    19     1     2    1
    20     2     3    2
    21     3    13    1
    22    13    14   ar
    23    14    15   ar
    24    15    16   ar
    25    16    17   ar
    26    17    18   ar
    27     3     4    1
    28     4     5   ar
    29     5     6   ar
    30     6     7   ar
    31     7     8   ar
    32     8     9   ar
    33     9    10    1
    34    10    38    1
    35    38    39    1
    36    39    40    1
    37    39    41    1
    38    39    42    1
    39    10    11   am
    40    11    12    2
    41    29    24   ar
    42    11     1    1
    43    18    13   ar
    44     9     4   ar
    45    21    22    1
@<TRIPOS>MOLECULE
*****
 42 45 0 0 0
SMALL
GASTEIGER

@<TRIPOS>ATOM
      1 C         141.0806  140.5119  162.0362 C.3     1  UNL1        0.2551
      2 N         141.1343  139.6647  160.7995 N.2     1  UNL1       -0.2434
      3 C         141.4527  140.0809  159.3940 C.2     1  UNL1        0.0795
      4 C         141.7960  141.4469  158.8781 C.ar    1  UNL1        0.0310
      5 C         142.0456  141.4274  157.3991 C.ar    1  UNL1        0.0027
      6 C         142.4050  142.6951  156.6824 C.ar    1  UNL1        0.0001
      7 C         142.5147  143.9823  157.4446 C.ar    1  UNL1        0.0013
      8 C         142.2650  144.0019  158.9235 C.ar    1  UNL1        0.0150
      9 C         141.9057  142.7342  159.6402 C.ar    1  UNL1        0.0556
     10 N         141.6992  142.9733  161.1066 N.am    1  UNL1       -0.2474
     11 C         141.3320  141.9844  162.1730 C.2     1  UNL1        0.2714
     12 O         141.1985  142.5414  163.5592 O.2     1  UNL1       -0.2705
     13 C         141.4240  138.9863  158.3688 C.ar    1  UNL1        0.0174
     14 C         140.1407  138.6460  157.6707 C.ar    1  UNL1        0.0015
     15 C         140.1120  137.5514  156.6455 C.ar    1  UNL1        0.0000
     16 C         141.3666  136.7970  156.3185 C.ar    1  UNL1        0.0000
     17 C         142.6498  137.1373  157.0166 C.ar    1  UNL1        0.0000
     18 C         142.6786  138.2319  158.0417 C.ar    1  UNL1        0.0015
     19 O         143.2547  139.4946  163.8358 O.2     1  UNL1       -0.2747
     20 C         141.8160  139.2826  164.2037 C.2     1  UNL1        0.2285
     21 N         140.7290  139.7912  163.3039 N.am    1  UNL1       -0.2795
     22 H         139.7847  139.6521  163.5454 H       1  UNL1        0.1516
     23 C         141.4643  138.5620  165.4714 C.3     1  UNL1        0.1113
     24 C         141.3056  139.3289  166.7508 C.ar    1  UNL1       -0.0092
     25 C         142.4792  139.5098  167.6673 C.ar    1  UNL1       -0.0039
     26 C         142.3205  140.2768  168.9466 C.ar    1  UNL1        0.0035
     27 C         140.9882  140.8627  169.3095 C.ar    1  UNL1        0.0714
     28 C         139.8146  140.6816  168.3929 C.ar    1  UNL1        0.0074
     29 C         139.9733  139.9148  167.1136 C.ar    1  UNL1        0.0679
     30 C         140.8294  141.6295  170.5888 C.3     1  UNL1        0.4186
     31 F         140.6707  142.3964  171.8681 F       1  UNL1       -0.1659
     32 F         139.4994  142.1391  170.1183 F       1  UNL1       -0.1659
     33 F         142.1594  141.1199  171.0593 F       1  UNL1       -0.1659
     34 C         138.7997  139.7337  166.1971 C.3     1  UNL1        0.4183
     35 F         137.6262  139.5527  165.2806 F       1  UNL1       -0.1659
     36 F         138.5348  138.3871  166.8023 F       1  UNL1       -0.1659
     37 F         139.0646  141.0804  165.5919 F       1  UNL1       -0.1659
     38 C         141.8843  144.3887  161.5676 C.3     1  UNL1        0.2017
     39 C         140.6890  145.2316  161.9004 C.3     1  UNL1        0.4160
     40 F         139.4937  146.0745  162.2331 F       1  UNL1       -0.1682
     41 F         139.7028  144.9061  160.8181 F       1  UNL1       -0.1682
     42 F         141.4074  145.7772  163.0988 F       1  UNL1       -0.1682
@<TRIPOS>BOND
     1    19    20    2
     2    20    23    1
     3    23    24    1
     4    24    25   ar
     5    25    26   ar
     6    26    27   ar
     7    27    30    1
     8    30    31    1
     9    30    32    1
    10    30    33    1
    11    27    28   ar
    12    28    29   ar
    13    29    34    1
    14    34    35    1
    15    34    36    1
    16    34    37    1
    17    20    21   am
    18     1    21    1
    19     1     2    1
    20     2     3    2
    21     3    13    1
    22    13    14   ar
    23    14    15   ar
    24    15    16   ar
    25    16    17   ar
    26    17    18   ar
    27     3     4    1
    28     4     5   ar
    29     5     6   ar
    30     6     7   ar
    31     7     8   ar
    32     8     9   ar
    33     9    10    1
    34    10    38    1
    35    38    39    1
    36    39    40    1
    37    39    41    1
    38    39    42    1
    39    10    11   am
    40    11    12    2
    41    29    24   ar
    42    11     1    1
    43    18    13   ar
    44     9     4   ar
    45    21    22    1
@<TRIPOS>MOLECULE
*****
 42 45 0 0 0
SMALL
GASTEIGER

@<TRIPOS>ATOM
      1 C         141.9289  139.6753  160.7830 C.3     1  UNL1        0.2551
      2 N         142.4522  138.9060  159.6064 N.2     1  UNL1       -0.2434
      3 C         141.8522  138.7662  158.2387 C.2     1  UNL1        0.0795
      4 C         140.5808  139.3612  157.7098 C.ar    1  UNL1        0.0310
      5 C         140.3459  138.9704  156.2808 C.ar    1  UNL1        0.0027
      6 C         139.1255  139.4613  155.5601 C.ar    1  UNL1        0.0001
      7 C         138.1401  140.3431  156.2683 C.ar    1  UNL1        0.0013
      8 C         138.3750  140.7338  157.6972 C.ar    1  UNL1        0.0150
      9 C         139.5954  140.2429  158.4180 C.ar    1  UNL1        0.0556
     10 N         139.6381  140.7474  159.8300 N.am    1  UNL1       -0.2474
     11 C         140.6765  140.4948  160.8826 C.2     1  UNL1        0.2714
     12 O         140.4300  141.1481  162.2101 O.2     1  UNL1       -0.2705
     13 C         142.6259  137.9195  157.2721 C.ar    1  UNL1        0.0174
     14 C         142.4925  136.4259  157.3098 C.ar    1  UNL1        0.0015
     15 C         143.2662  135.5791  156.3431 C.ar    1  UNL1        0.0000
     16 C         144.1734  136.2260  155.3388 C.ar    1  UNL1        0.0000
     17 C         144.3068  137.7195  155.3011 C.ar    1  UNL1        0.0000
     18 C         143.5331  138.5663  156.2677 C.ar    1  UNL1        0.0015
     19 O         144.0411  141.7511  161.2625 O.2     1  UNL1       -0.2747
     20 C         143.8253  140.6553  162.2640 C.2     1  UNL1        0.2285
     21 N         142.7692  139.6175  162.0242 N.am    1  UNL1       -0.2795
     22 H         142.6276  138.8983  162.6814 H       1  UNL1        0.1516
     23 C         144.6656  140.5975  163.5052 C.3     1  UNL1        0.1113
     24 C         144.0207  140.3485  164.8365 C.ar    1  UNL1       -0.0092
     25 C         143.9786  138.9596  165.4014 C.ar    1  UNL1       -0.0039
     26 C         143.3337  138.7107  166.7327 C.ar    1  UNL1        0.0035
     27 C         142.7311  139.8506  167.4990 C.ar    1  UNL1        0.0714
     28 C         142.7734  141.2396  166.9341 C.ar    1  UNL1        0.0074
     29 C         143.4181  141.4885  165.6028 C.ar    1  UNL1        0.0679
     30 C         142.0864  139.6017  168.8303 C.3     1  UNL1        0.4186
     31 F         141.4416  139.3528  170.1615 F       1  UNL1       -0.1659
     32 F         142.9668  138.4044  169.0328 F       1  UNL1       -0.1659
     33 F         141.2059  140.7991  168.6277 F       1  UNL1       -0.1659
     34 C         143.4603  142.8775  165.0379 C.3     1  UNL1        0.4183
     35 F         143.5026  144.2663  164.4730 F       1  UNL1       -0.1659
     36 F         144.7823  143.1096  165.7074 F       1  UNL1       -0.1659
     37 F         142.1383  142.6453  164.3683 F       1  UNL1       -0.1659
     38 C         138.4904  141.6199  160.2443 C.3     1  UNL1        0.2017
     39 C         137.7410  141.3231  161.5094 C.3     1  UNL1        0.4160
     40 F         136.9918  141.0263  162.7745 F       1  UNL1       -0.1682
     41 F         137.5315  139.8384  161.4673 F       1  UNL1       -0.1682
     42 F         137.7702  142.7792  161.8682 F       1  UNL1       -0.1682
@<TRIPOS>BOND
     1    19    20    2
     2    20    23    1
     3    23    24    1
     4    24    25   ar
     5    25    26   ar
     6    26    27   ar
     7    27    30    1
     8    30    31    1
     9    30    32    1
    10    30    33    1
    11    27    28   ar
    12    28    29   ar
    13    29    34    1
    14    34    35    1
    15    34    36    1
    16    34    37    1
    17    20    21   am
    18     1    21    1
    19     1     2    1
    20     2     3    2
    21     3    13    1
    22    13    14   ar
    23    14    15   ar
    24    15    16   ar
    25    16    17   ar
    26    17    18   ar
    27     3     4    1
    28     4     5   ar
    29     5     6   ar
    30     6     7   ar
    31     7     8   ar
    32     8     9   ar
    33     9    10    1
    34    10    38    1
    35    38    39    1
    36    39    40    1
    37    39    41    1
    38    39    42    1
    39    10    11   am
    40    11    12    2
    41    29    24   ar
    42    11     1    1
    43    18    13   ar
    44     9     4   ar
    45    21    22    1
