@<TRIPOS>MOLECULE
*****
 29 32 0 0 0
SMALL
GASTEIGER

@<TRIPOS>ATOM
      1 C         140.7564  140.1045  165.4908 C.ar    1  UNL1        0.0832
      2 C         139.3411  139.7702  165.1231 C.ar    1  UNL1        0.0125
      3 C         138.2735  139.2978  166.0650 C.3     1  UNL1        0.0340
      4 C         139.1808  139.9913  163.6482 C.ar    1  UNL1        0.0924
      5 N         140.4970  140.4622  163.1043 N.ar    1  UNL1       -0.1671
      6 N         141.4708  140.5322  164.2431 N.ar    1  UNL1       -0.2119
      7 C         143.1412  139.7868  170.9873 C.3     1  UNL1        0.0545
      8 C         142.5450  139.8662  169.6132 C.ar    1  UNL1        0.0867
      9 N         143.0694  138.9878  168.5162 N.ar    1  UNL1       -0.2458
     10 C         142.4732  139.0673  167.1421 C.ar    1  UNL1        0.1000
     11 C         141.3526  140.0251  166.8650 C.ar    1  UNL1        0.0389
     12 C         140.8282  140.9035  167.9620 C.ar    1  UNL1        0.0339
     13 C         141.4244  140.8240  169.3361 C.ar    1  UNL1        0.1536
     14 F         140.9000  141.7025  170.4331 F       1  UNL1       -0.2029
     15 C         142.9068  140.9555  164.1505 C.ar    1  UNL1        0.1743
     16 N         143.9703  139.9404  163.8526 N.ar    1  UNL1       -0.2243
     17 C         145.4063  140.3637  163.7600 C.ar    1  UNL1        0.1006
     18 C         145.7789  141.8022  163.9652 C.ar    1  UNL1        0.0217
     19 C         144.7155  142.8172  164.2631 C.ar    1  UNL1        0.0161
     20 C         143.2795  142.3939  164.3557 C.ar    1  UNL1        0.0934
     21 CL        142.2161  143.4091  164.6536 Cl      1  UNL1       -0.0790
     22 C         137.9248  139.7787  162.8562 C.3     1  UNL1        0.1166
     23 N         137.0325  140.9419  162.5388 N.3     1  UNL1       -0.2935
     24 H         136.1332  140.7525  162.9814 H       1  UNL1        0.1236
     25 C         137.4332  142.3282  162.9481 C.3     1  UNL1        0.0543
     26 C         137.3624  142.8928  164.3360 C.3     1  UNL1        0.0157
     27 C         137.8605  144.3069  164.2871 C.3     1  UNL1        0.0014
     28 C         138.2393  144.6161  162.8690 C.3     1  UNL1        0.0014
     29 C         137.9751  143.3932  162.0414 C.3     1  UNL1        0.0157
@<TRIPOS>BOND
     1     7     8    1
     2     8     9   ar
     3     9    10   ar
     4    10    11   ar
     5    11     1    1
     6     1     2   ar
     7     2     3    1
     8     2     4   ar
     9     4    22    1
    10    22    23    1
    11    23    25    1
    12    25    26    1
    13    26    27    1
    14    27    28    1
    15    28    29    1
    16     4     5   ar
    17     5     6   ar
    18     6    15    1
    19    15    16   ar
    20    16    17   ar
    21    17    18   ar
    22    18    19   ar
    23    19    20   ar
    24    20    21    1
    25    11    12   ar
    26    12    13   ar
    27    13    14    1
    28    13     8   ar
    29     6     1   ar
    30    20    15   ar
    31    29    25    1
    32    23    24    1
@<TRIPOS>MOLECULE
*****
 29 32 0 0 0
SMALL
GASTEIGER

@<TRIPOS>ATOM
      1 C         140.4620  141.2826  165.5439 C.ar    1  UNL1        0.0832
      2 C         139.4397  140.1989  165.3696 C.ar    1  UNL1        0.0125
      3 C         138.8355  139.3721  166.4657 C.3     1  UNL1        0.0340
      4 C         139.1275  140.0870  163.9067 C.ar    1  UNL1        0.0924
      5 N         139.9569  141.1016  163.1769 N.ar    1  UNL1       -0.1671
      6 N         140.7817  141.8405  164.1887 N.ar    1  UNL1       -0.2119
      7 C         142.8528  143.0716  170.7481 C.3     1  UNL1        0.0545
      8 C         142.2551  142.6243  169.4471 C.ar    1  UNL1        0.0867
      9 N         142.9551  141.5900  168.6163 N.ar    1  UNL1       -0.2458
     10 C         142.3574  141.1428  167.3153 C.ar    1  UNL1        0.1000
     11 C         141.0597  141.7298  166.8450 C.ar    1  UNL1        0.0389
     12 C         140.3597  142.7642  167.6757 C.ar    1  UNL1        0.0339
     13 C         140.9574  143.2114  168.9767 C.ar    1  UNL1        0.1536
     14 F         140.2574  144.2458  169.8074 F       1  UNL1       -0.2029
     15 C         141.7552  142.9437  163.8967 C.ar    1  UNL1        0.1743
     16 N         143.1476  142.6153  163.4455 N.ar    1  UNL1       -0.2243
     17 C         144.1212  143.7184  163.1534 C.ar    1  UNL1        0.1006
     18 C         143.7023  145.1499  163.3125 C.ar    1  UNL1        0.0217
     19 C         142.3100  145.4783  163.7636 C.ar    1  UNL1        0.0161
     20 C         141.3365  144.3752  164.0556 C.ar    1  UNL1        0.0934
     21 CL        139.9441  144.7037  164.5068 Cl      1  UNL1       -0.0790
     22 C         138.1564  139.1288  163.2831 C.3     1  UNL1        0.1166
     23 N         138.6606  137.9636  162.4844 N.3     1  UNL1       -0.2935
     24 H         138.0159  137.8407  161.7037 H       1  UNL1        0.1236
     25 C         140.0432  137.9947  161.9034 C.3     1  UNL1        0.0543
     26 C         141.3001  137.5561  162.5946 C.3     1  UNL1        0.0157
     27 C         142.4453  137.7602  161.6476 C.3     1  UNL1        0.0014
     28 C         141.8962  138.3250  160.3711 C.3     1  UNL1        0.0014
     29 C         140.4115  138.4700  160.5292 C.3     1  UNL1        0.0157
@<TRIPOS>BOND
     1     7     8    1
     2     8     9   ar
     3     9    10   ar
     4    10    11   ar
     5    11     1    1
     6     1     2   ar
     7     2     3    1
     8     2     4   ar
     9     4    22    1
    10    22    23    1
    11    23    25    1
    12    25    26    1
    13    26    27    1
    14    27    28    1
    15    28    29    1
    16     4     5   ar
    17     5     6   ar
    18     6    15    1
    19    15    16   ar
    20    16    17   ar
    21    17    18   ar
    22    18    19   ar
    23    19    20   ar
    24    20    21    1
    25    11    12   ar
    26    12    13   ar
    27    13    14    1
    28    13     8   ar
    29     6     1   ar
    30    20    15   ar
    31    29    25    1
    32    23    24    1
@<TRIPOS>MOLECULE
*****
 29 32 0 0 0
SMALL
GASTEIGER

@<TRIPOS>ATOM
      1 C         139.3895  140.7756  165.4745 C.ar    1  UNL1        0.0832
      2 C         138.9933  139.9942  166.6920 C.ar    1  UNL1        0.0125
      3 C         138.0245  138.8496  166.7282 C.3     1  UNL1        0.0340
      4 C         139.7358  140.5583  167.8669 C.ar    1  UNL1        0.0924
      5 N         140.5911  141.6884  167.3755 N.ar    1  UNL1       -0.1671
      6 N         140.3770  141.8227  165.8970 N.ar    1  UNL1       -0.2119
      7 C         137.3779  139.8719  159.8945 C.3     1  UNL1        0.0545
      8 C         137.8808  140.0978  161.2895 C.ar    1  UNL1        0.0867
      9 N         137.3912  141.2735  162.0820 N.ar    1  UNL1       -0.2458
     10 C         137.8941  141.4994  163.4770 C.ar    1  UNL1        0.1000
     11 C         138.8866  140.5497  164.0795 C.ar    1  UNL1        0.0389
     12 C         139.3762  139.3741  163.2869 C.ar    1  UNL1        0.0339
     13 C         138.8733  139.1482  161.8919 C.ar    1  UNL1        0.1536
     14 F         139.3629  137.9725  161.0994 F       1  UNL1       -0.2029
     15 C         141.0350  142.8277  164.9986 C.ar    1  UNL1        0.1743
     16 N         142.3787  142.5327  164.4004 N.ar    1  UNL1       -0.2243
     17 C         143.0367  143.5377  163.5021 C.ar    1  UNL1        0.1006
     18 C         142.3511  144.8377  163.2018 C.ar    1  UNL1        0.0217
     19 C         141.0075  145.1326  163.8000 C.ar    1  UNL1        0.0161
     20 C         140.3495  144.1276  164.6983 C.ar    1  UNL1        0.0934
     21 CL        139.0058  144.4226  165.2964 Cl      1  UNL1       -0.0790
     22 C         139.6400  140.0768  169.2842 C.3     1  UNL1        0.1166
     23 N         140.8833  139.9192  170.1085 N.3     1  UNL1       -0.2935
     24 H         141.3790  139.1069  169.7412 H       1  UNL1        0.1236
     25 C         141.8801  141.0375  170.1834 C.3     1  UNL1        0.0543
     26 C         143.2841  141.0039  169.6564 C.3     1  UNL1        0.0157
     27 C         143.9197  142.3314  169.9458 C.3     1  UNL1        0.0014
     28 C         142.9086  143.1855  170.6517 C.3     1  UNL1        0.0014
     29 C         141.6480  142.3858  170.7985 C.3     1  UNL1        0.0157
@<TRIPOS>BOND
     1     7     8    1
     2     8     9   ar
     3     9    10   ar
     4    10    11   ar
     5    11     1    1
     6     1     2   ar
     7     2     3    1
     8     2     4   ar
     9     4    22    1
    10    22    23    1
    11    23    25    1
    12    25    26    1
    13    26    27    1
    14    27    28    1
    15    28    29    1
    16     4     5   ar
    17     5     6   ar
    18     6    15    1
    19    15    16   ar
    20    16    17   ar
    21    17    18   ar
    22    18    19   ar
    23    19    20   ar
    24    20    21    1
    25    11    12   ar
    26    12    13   ar
    27    13    14    1
    28    13     8   ar
    29     6     1   ar
    30    20    15   ar
    31    29    25    1
    32    23    24    1
@<TRIPOS>MOLECULE
*****
 29 32 0 0 0
SMALL
GASTEIGER

@<TRIPOS>ATOM
      1 C         141.3323  140.2716  165.7396 C.ar    1  UNL1        0.0832
      2 C         142.2168  139.1719  165.2313 C.ar    1  UNL1        0.0125
      3 C         143.0590  138.2584  166.0716 C.3     1  UNL1        0.0340
      4 C         142.1111  139.1460  163.7353 C.ar    1  UNL1        0.0924
      5 N         141.1614  140.2298  163.3189 N.ar    1  UNL1       -0.1671
      6 N         140.6801  140.9255  164.5576 N.ar    1  UNL1       -0.2119
      7 C         140.5423  141.7890  171.4905 C.3     1  UNL1        0.0545
      8 C         140.7398  141.4096  170.0528 C.ar    1  UNL1        0.0867
      9 N         142.0111  141.7787  169.3476 N.ar    1  UNL1       -0.2458
     10 C         142.2086  141.3994  167.9098 C.ar    1  UNL1        0.1000
     11 C         141.1348  140.6510  167.1773 C.ar    1  UNL1        0.0389
     12 C         139.8634  140.2819  167.8825 C.ar    1  UNL1        0.0339
     13 C         139.6659  140.6612  169.3202 C.ar    1  UNL1        0.1536
     14 F         138.3945  140.2921  170.0255 F       1  UNL1       -0.2029
     15 C         139.7158  142.0734  164.6058 C.ar    1  UNL1        0.1743
     16 N         140.1992  143.4439  164.9777 N.ar    1  UNL1       -0.2243
     17 C         139.2349  144.5919  165.0259 C.ar    1  UNL1        0.1006
     18 C         137.7872  144.3694  164.7023 C.ar    1  UNL1        0.0217
     19 C         137.3039  142.9990  164.3304 C.ar    1  UNL1        0.0161
     20 C         138.2682  141.8511  164.2822 C.ar    1  UNL1        0.0934
     21 CL        137.7847  140.4806  163.9102 Cl      1  UNL1       -0.0790
     22 C         142.8292  138.2021  162.8169 C.3     1  UNL1        0.1166
     23 N         144.0789  138.6440  162.1149 N.3     1  UNL1       -0.2935
     24 H         143.9172  138.5141  161.1162 H       1  UNL1        0.1236
     25 C         144.5837  140.0452  162.2931 C.3     1  UNL1        0.0543
     26 C         145.3257  140.5700  163.4865 C.3     1  UNL1        0.0157
     27 C         145.6357  142.0168  163.2401 C.3     1  UNL1        0.0014
     28 C         145.0852  142.3862  161.8946 C.3     1  UNL1        0.0014
     29 C         144.4350  141.1677  161.3092 C.3     1  UNL1        0.0157
@<TRIPOS>BOND
     1     7     8    1
     2     8     9   ar
     3     9    10   ar
     4    10    11   ar
     5    11     1    1
     6     1     2   ar
     7     2     3    1
     8     2     4   ar
     9     4    22    1
    10    22    23    1
    11    23    25    1
    12    25    26    1
    13    26    27    1
    14    27    28    1
    15    28    29    1
    16     4     5   ar
    17     5     6   ar
    18     6    15    1
    19    15    16   ar
    20    16    17   ar
    21    17    18   ar
    22    18    19   ar
    23    19    20   ar
    24    20    21    1
    25    11    12   ar
    26    12    13   ar
    27    13    14    1
    28    13     8   ar
    29     6     1   ar
    30    20    15   ar
    31    29    25    1
    32    23    24    1
@<TRIPOS>MOLECULE
*****
 29 32 0 0 0
SMALL
GASTEIGER

@<TRIPOS>ATOM
      1 C         141.9259  139.3754  165.4085 C.ar    1  UNL1        0.0832
      2 C         142.7143  138.9297  166.6043 C.ar    1  UNL1        0.0125
      3 C         143.8718  137.9758  166.5915 C.3     1  UNL1        0.0340
      4 C         142.1419  139.6053  167.8150 C.ar    1  UNL1        0.0924
      5 N         140.9998  140.4686  167.3676 N.ar    1  UNL1       -0.1671
      6 N         140.8663  140.3265  165.8803 N.ar    1  UNL1       -0.2119
      7 C         142.8489  137.6559  159.7348 C.3     1  UNL1        0.0545
      8 C         142.6181  138.0857  161.1532 C.ar    1  UNL1        0.0867
      9 N         141.5652  137.4093  161.9801 N.ar    1  UNL1       -0.2458
     10 C         141.3345  137.8392  163.3985 C.ar    1  UNL1        0.1000
     11 C         142.1567  138.9455  163.9901 C.ar    1  UNL1        0.0389
     12 C         143.2096  139.6220  163.1632 C.ar    1  UNL1        0.0339
     13 C         143.4403  139.1921  161.7448 C.ar    1  UNL1        0.1536
     14 F         144.4933  139.8686  160.9179 F       1  UNL1       -0.2029
     15 C         139.8514  141.0148  165.0165 C.ar    1  UNL1        0.1743
     16 N         140.1177  142.3993  164.5043 N.ar    1  UNL1       -0.2243
     17 C         139.1027  143.0876  163.6405 C.ar    1  UNL1        0.1006
     18 C         137.8215  142.3913  163.2888 C.ar    1  UNL1        0.0217
     19 C         137.5552  141.0068  163.8009 C.ar    1  UNL1        0.0161
     20 C         138.5702  140.3186  164.6647 C.ar    1  UNL1        0.0934
     21 CL        138.3038  138.9341  165.1768 Cl      1  UNL1       -0.0790
     22 C         142.6266  139.4456  169.2255 C.3     1  UNL1        0.1166
     23 N         142.8405  140.6551  170.0865 N.3     1  UNL1       -0.2935
     24 H         143.6879  141.1112  169.7484 H       1  UNL1        0.1236
     25 C         141.7816  141.7145  170.1679 C.3     1  UNL1        0.0543
     26 C         141.8901  143.1123  169.6345 C.3     1  UNL1        0.0157
     27 C         140.6039  143.8237  169.9339 C.3     1  UNL1        0.0014
     28 C         139.7005  142.8656  170.6522 C.3     1  UNL1        0.0014
     29 C         140.4284  141.5620  170.7969 C.3     1  UNL1        0.0157
@<TRIPOS>BOND
     1     7     8    1
     2     8     9   ar
     3     9    10   ar
     4    10    11   ar
     5    11     1    1
     6     1     2   ar
     7     2     3    1
     8     2     4   ar
     9     4    22    1
    10    22    23    1
    11    23    25    1
    12    25    26    1
    13    26    27    1
    14    27    28    1
    15    28    29    1
    16     4     5   ar
    17     5     6   ar
    18     6    15    1
    19    15    16   ar
    20    16    17   ar
    21    17    18   ar
    22    18    19   ar
    23    19    20   ar
    24    20    21    1
    25    11    12   ar
    26    12    13   ar
    27    13    14    1
    28    13     8   ar
    29     6     1   ar
    30    20    15   ar
    31    29    25    1
    32    23    24    1
@<TRIPOS>MOLECULE
*****
 29 32 0 0 0
SMALL
GASTEIGER

@<TRIPOS>ATOM
      1 C         141.4495  141.0790  165.1899 C.ar    1  UNL1        0.0832
      2 C         142.2090  141.0467  166.4830 C.ar    1  UNL1        0.0125
      3 C         142.7630  142.2361  167.2100 C.3     1  UNL1        0.0340
      4 C         142.3172  139.6164  166.9215 C.ar    1  UNL1        0.0924
      5 N         141.6246  138.7646  165.8994 N.ar    1  UNL1       -0.1671
      6 N         141.0883  139.6685  164.8292 N.ar    1  UNL1       -0.2119
      7 C         140.0941  145.9880  162.0174 C.3     1  UNL1        0.0545
      8 C         140.4330  144.7607  162.8105 C.ar    1  UNL1        0.0867
      9 N         141.7882  144.1319  162.6769 N.ar    1  UNL1       -0.2458
     10 C         142.1270  142.9046  163.4700 C.ar    1  UNL1        0.1000
     11 C         141.1107  142.3063  164.3968 C.ar    1  UNL1        0.0389
     12 C         139.7555  142.9351  164.5304 C.ar    1  UNL1        0.0339
     13 C         139.4166  144.1624  163.7373 C.ar    1  UNL1        0.1536
     14 F         138.0613  144.7912  163.8709 F       1  UNL1       -0.2029
     15 C         140.3249  139.2376  163.6121 C.ar    1  UNL1        0.1743
     16 N         141.0611  138.7687  162.3920 N.ar    1  UNL1       -0.2243
     17 C         140.2976  138.3378  161.1749 C.ar    1  UNL1        0.1006
     18 C         138.7981  138.3758  161.1776 C.ar    1  UNL1        0.0217
     19 C         138.0620  138.8447  162.3976 C.ar    1  UNL1        0.0161
     20 C         138.8255  139.2756  163.6148 C.ar    1  UNL1        0.0934
     21 CL        138.0893  139.7446  164.8347 Cl      1  UNL1       -0.0790
     22 C         142.9985  139.1242  168.1640 C.3     1  UNL1        0.1166
     23 N         142.2349  139.0328  169.4518 N.3     1  UNL1       -0.2935
     24 H         142.9238  138.9147  170.1948 H       1  UNL1        0.1236
     25 C         141.3343  140.1567  169.8711 C.3     1  UNL1        0.0543
     26 C         139.8878  140.3109  169.5052 C.3     1  UNL1        0.0157
     27 C         139.3817  141.5732  170.1379 C.3     1  UNL1        0.0014
     28 C         140.5153  142.1992  170.8948 C.3     1  UNL1        0.0014
     29 C         141.7222  141.3237  170.7300 C.3     1  UNL1        0.0157
@<TRIPOS>BOND
     1     7     8    1
     2     8     9   ar
     3     9    10   ar
     4    10    11   ar
     5    11     1    1
     6     1     2   ar
     7     2     3    1
     8     2     4   ar
     9     4    22    1
    10    22    23    1
    11    23    25    1
    12    25    26    1
    13    26    27    1
    14    27    28    1
    15    28    29    1
    16     4     5   ar
    17     5     6   ar
    18     6    15    1
    19    15    16   ar
    20    16    17   ar
    21    17    18   ar
    22    18    19   ar
    23    19    20   ar
    24    20    21    1
    25    11    12   ar
    26    12    13   ar
    27    13    14    1
    28    13     8   ar
    29     6     1   ar
    30    20    15   ar
    31    29    25    1
    32    23    24    1
@<TRIPOS>MOLECULE
*****
 29 32 0 0 0
SMALL
GASTEIGER

@<TRIPOS>ATOM
      1 C         141.8537  140.4876  165.6340 C.ar    1  UNL1        0.0832
      2 C         142.7768  139.4161  165.1341 C.ar    1  UNL1        0.0125
      3 C         143.5859  138.4822  165.9845 C.3     1  UNL1        0.0340
      4 C         142.7488  139.4426  163.6346 C.ar    1  UNL1        0.0924
      5 N         141.8084  140.5304  163.2077 N.ar    1  UNL1       -0.1671
      6 N         141.2552  141.1762  164.4434 N.ar    1  UNL1       -0.2119
      7 C         140.7493  141.7901  171.3859 C.3     1  UNL1        0.0545
      8 C         141.0254  141.4645  169.9479 C.ar    1  UNL1        0.0867
      9 N         142.3354  141.8530  169.3291 N.ar    1  UNL1       -0.2458
     10 C         142.6114  141.5274  167.8911 C.ar    1  UNL1        0.1000
     11 C         141.5776  140.8132  167.0720 C.ar    1  UNL1        0.0389
     12 C         140.2676  140.4246  167.6908 C.ar    1  UNL1        0.0339
     13 C         139.9915  140.7503  169.1288 C.ar    1  UNL1        0.1536
     14 F         138.6815  140.3617  169.7476 F       1  UNL1       -0.2029
     15 C         140.2755  142.3114  164.4817 C.ar    1  UNL1        0.1743
     16 N         140.7680  143.7282  164.4635 N.ar    1  UNL1       -0.2243
     17 C         139.7883  144.8634  164.5018 C.ar    1  UNL1        0.1006
     18 C         138.3161  144.5820  164.5584 C.ar    1  UNL1        0.0217
     19 C         137.8235  143.1653  164.5766 C.ar    1  UNL1        0.0161
     20 C         138.8033  142.0300  164.5383 C.ar    1  UNL1        0.0934
     21 CL        138.3106  140.6133  164.5566 Cl      1  UNL1       -0.0790
     22 C         143.5249  138.5397  162.7222 C.3     1  UNL1        0.1166
     23 N         142.8014  137.6116  161.7922 N.3     1  UNL1       -0.2935
     24 H         142.7821  136.6975  162.2445 H       1  UNL1        0.1236
     25 C         141.3939  137.9170  161.3729 C.3     1  UNL1        0.0543
     26 C         140.1571  137.6573  162.1809 C.3     1  UNL1        0.0157
     27 C         138.9750  138.1155  161.3792 C.3     1  UNL1        0.0014
     28 C         139.4812  138.6583  160.0758 C.3     1  UNL1        0.0014
     29 C         140.9762  138.5356  160.0718 C.3     1  UNL1        0.0157
@<TRIPOS>BOND
     1     7     8    1
     2     8     9   ar
     3     9    10   ar
     4    10    11   ar
     5    11     1    1
     6     1     2   ar
     7     2     3    1
     8     2     4   ar
     9     4    22    1
    10    22    23    1
    11    23    25    1
    12    25    26    1
    13    26    27    1
    14    27    28    1
    15    28    29    1
    16     4     5   ar
    17     5     6   ar
    18     6    15    1
    19    15    16   ar
    20    16    17   ar
    21    17    18   ar
    22    18    19   ar
    23    19    20   ar
    24    20    21    1
    25    11    12   ar
    26    12    13   ar
    27    13    14    1
    28    13     8   ar
    29     6     1   ar
    30    20    15   ar
    31    29    25    1
    32    23    24    1
@<TRIPOS>MOLECULE
*****
 29 32 0 0 0
SMALL
GASTEIGER

@<TRIPOS>ATOM
      1 C         142.6828  141.3934  165.6763 C.ar    1  UNL1        0.0832
      2 C         143.6947  142.3553  165.1277 C.ar    1  UNL1        0.0125
      3 C         144.4869  143.3504  165.9229 C.3     1  UNL1        0.0340
      4 C         143.7754  142.1473  163.6444 C.ar    1  UNL1        0.0924
      5 N         142.8134  141.0570  163.2762 N.ar    1  UNL1       -0.1671
      6 N         142.1381  140.5911  164.5320 N.ar    1  UNL1       -0.2119
      7 C         141.0930  140.8510  171.4363 C.3     1  UNL1        0.0545
      8 C         141.4905  140.9866  169.9963 C.ar    1  UNL1        0.0867
      9 N         141.1251  142.2236  169.2307 N.ar    1  UNL1       -0.2458
     10 C         141.5225  142.3593  167.7907 C.ar    1  UNL1        0.1000
     11 C         142.2854  141.2578  167.1163 C.ar    1  UNL1        0.0389
     12 C         142.6508  140.0208  167.8819 C.ar    1  UNL1        0.0339
     13 C         142.2533  139.8852  169.3219 C.ar    1  UNL1        0.1536
     14 F         142.6188  138.6481  170.0875 F       1  UNL1       -0.2029
     15 C         141.1003  139.5122  164.6267 C.ar    1  UNL1        0.1743
     16 N         141.5001  138.0728  164.4899 N.ar    1  UNL1       -0.2243
     17 C         140.4623  136.9939  164.5847 C.ar    1  UNL1        0.1006
     18 C         139.0248  137.3543  164.8163 C.ar    1  UNL1        0.0217
     19 C         138.6251  138.7935  164.9531 C.ar    1  UNL1        0.0161
     20 C         139.6628  139.8724  164.8583 C.ar    1  UNL1        0.0934
     21 CL        139.2630  141.3117  164.9951 Cl      1  UNL1       -0.0790
     22 C         144.6625  142.8979  162.6958 C.3     1  UNL1        0.1166
     23 N         144.2290  144.2295  162.1583 N.3     1  UNL1       -0.2935
     24 H         144.5137  144.2586  161.1792 H       1  UNL1        0.1236
     25 C         142.7813  144.6200  162.2001 C.3     1  UNL1        0.0543
     26 C         141.7830  144.4238  161.0979 C.3     1  UNL1        0.0157
     27 C         140.4625  144.9577  161.5681 C.3     1  UNL1        0.0014
     28 C         140.6446  145.4840  162.9609 C.3     1  UNL1        0.0014
     29 C         142.0778  145.2752  163.3516 C.3     1  UNL1        0.0157
@<TRIPOS>BOND
     1     7     8    1
     2     8     9   ar
     3     9    10   ar
     4    10    11   ar
     5    11     1    1
     6     1     2   ar
     7     2     3    1
     8     2     4   ar
     9     4    22    1
    10    22    23    1
    11    23    25    1
    12    25    26    1
    13    26    27    1
    14    27    28    1
    15    28    29    1
    16     4     5   ar
    17     5     6   ar
    18     6    15    1
    19    15    16   ar
    20    16    17   ar
    21    17    18   ar
    22    18    19   ar
    23    19    20   ar
    24    20    21    1
    25    11    12   ar
    26    12    13   ar
    27    13    14    1
    28    13     8   ar
    29     6     1   ar
    30    20    15   ar
    31    29    25    1
    32    23    24    1
@<TRIPOS>MOLECULE
*****
 29 32 0 0 0
SMALL
GASTEIGER

@<TRIPOS>ATOM
      1 C         140.7741  142.8663  165.0024 C.ar    1  UNL1        0.0832
      2 C         139.9456  144.0352  164.5581 C.ar    1  UNL1        0.0125
      3 C         138.8524  144.6920  165.3477 C.3     1  UNL1        0.0340
      4 C         140.4022  144.4319  163.1855 C.ar    1  UNL1        0.0924
      5 N         141.5129  143.5083  162.7815 N.ar    1  UNL1       -0.1671
      6 N         141.7427  142.5407  163.9044 N.ar    1  UNL1       -0.2119
      7 C         140.2970  139.9973  170.2504 C.3     1  UNL1        0.0545
      8 C         140.4163  140.7145  168.9384 C.ar    1  UNL1        0.0867
      9 N         141.4138  141.8231  168.7777 N.ar    1  UNL1       -0.2458
     10 C         141.5331  142.5404  167.4657 C.ar    1  UNL1        0.1000
     11 C         140.6548  142.1491  166.3144 C.ar    1  UNL1        0.0389
     12 C         139.6572  141.0405  166.4752 C.ar    1  UNL1        0.0339
     13 C         139.5380  140.3232  167.7872 C.ar    1  UNL1        0.1536
     14 F         138.5404  139.2146  167.9479 F       1  UNL1       -0.2029
     15 C         142.7622  141.4406  163.9256 C.ar    1  UNL1        0.1743
     16 N         142.3571  140.0360  163.5892 N.ar    1  UNL1       -0.2243
     17 C         143.3766  138.9359  163.6103 C.ar    1  UNL1        0.1006
     18 C         144.8012  139.2404  163.9680 C.ar    1  UNL1        0.0217
     19 C         145.2063  140.6449  164.3044 C.ar    1  UNL1        0.0161
     20 C         144.1868  141.7450  164.2832 C.ar    1  UNL1        0.0934
     21 CL        144.5919  143.1496  164.6197 Cl      1  UNL1       -0.0790
     22 C         139.8458  145.5551  162.3615 C.3     1  UNL1        0.1166
     23 N         140.5932  146.0423  161.1557 N.3     1  UNL1       -0.2935
     24 H         141.5769  146.0944  161.4201 H       1  UNL1        0.1236
     25 C         140.5303  145.2695  159.8716 C.3     1  UNL1        0.0543
     26 C         141.2189  145.6326  158.5894 C.3     1  UNL1        0.0157
     27 C         140.8819  144.5855  157.5696 C.3     1  UNL1        0.0014
     28 C         139.9850  143.5752  158.2215 C.3     1  UNL1        0.0014
     29 C         139.7677  143.9980  159.6443 C.3     1  UNL1        0.0157
@<TRIPOS>BOND
     1     7     8    1
     2     8     9   ar
     3     9    10   ar
     4    10    11   ar
     5    11     1    1
     6     1     2   ar
     7     2     3    1
     8     2     4   ar
     9     4    22    1
    10    22    23    1
    11    23    25    1
    12    25    26    1
    13    26    27    1
    14    27    28    1
    15    28    29    1
    16     4     5   ar
    17     5     6   ar
    18     6    15    1
    19    15    16   ar
    20    16    17   ar
    21    17    18   ar
    22    18    19   ar
    23    19    20   ar
    24    20    21    1
    25    11    12   ar
    26    12    13   ar
    27    13    14    1
    28    13     8   ar
    29     6     1   ar
    30    20    15   ar
    31    29    25    1
    32    23    24    1
