@<TRIPOS>MOLECULE
*****
 29 34 0 0 0
SMALL
GASTEIGER

@<TRIPOS>ATOM
      1 O         142.0752  141.5650  160.7257 O.2     1  UNL1       -0.2904
      2 C         141.2098  141.9555  161.8870 C.2     1  UNL1        0.1885
      3 C         140.6211  143.3336  161.9537 C.ar    1  UNL1        0.0700
      4 C         140.8980  144.3212  160.8592 C.ar    1  UNL1        0.0059
      5 C         140.3094  145.6992  160.9260 C.ar    1  UNL1        0.0003
      6 C         139.4439  146.0896  162.0872 C.ar    1  UNL1        0.0031
      7 C         139.1670  145.1021  163.1817 C.ar    1  UNL1        0.0376
      8 C         139.7557  143.7240  163.1149 C.ar    1  UNL1        0.1476
      9 O         139.4788  142.7363  164.2095 O.3     1  UNL1       -0.4557
     10 C         140.0674  141.3583  164.1427 C.2     1  UNL1        0.1491
     11 C         139.9712  140.1800  165.0659 C.2     1  UNL1        0.0940
     12 N         140.7772  139.0613  164.4752 N.2     1  UNL1       -0.2480
     13 C         141.3715  139.5482  163.1870 C.2     1  UNL1        0.0966
     14 C         140.9329  140.9679  162.9815 C.3     1  UNL1        0.1621
     15 C         142.2503  138.7548  162.2659 C.ar    1  UNL1        0.1251
     16 N         141.8071  138.0370  161.0256 N.ar    1  UNL1       -0.2356
     17 C         143.0095  137.3785  160.4166 C.ar    1  UNL1        0.1065
     18 C         144.1957  137.6895  161.2805 C.ar    1  UNL1        0.0575
     19 S         143.7265  138.5401  162.4234 S.2     1  UNL1       -0.0647
     20 C         139.2037  140.1293  166.3537 C.3     1  UNL1        0.0750
     21 C         139.8302  140.6321  167.6204 C.ar    1  UNL1       -0.0129
     22 C         139.2497  140.2464  168.9487 C.ar    1  UNL1       -0.0006
     23 C         139.8761  140.7492  170.2156 C.ar    1  UNL1        0.0399
     24 C         141.0831  141.6377  170.1541 C.ar    1  UNL1        0.1764
     25 C         141.6636  142.0233  168.8258 C.ar    1  UNL1        0.1761
     26 C         141.0372  141.5206  167.5590 C.ar    1  UNL1        0.0363
     27 O         142.8498  142.9065  169.0772 O.3     1  UNL1       -0.4346
     28 C         143.0023  143.0666  170.5608 C.3     1  UNL1        0.4294
     29 O         141.9104  142.2825  171.2263 O.3     1  UNL1       -0.4346
@<TRIPOS>BOND
     1     1     2    2
     2     2     3    1
     3     3     4   ar
     4     4     5   ar
     5     5     6   ar
     6     6     7   ar
     7     7     8   ar
     8     8     9    1
     9     9    10    1
    10    10    11    2
    11    11    20    1
    12    20    21    1
    13    21    22   ar
    14    22    23   ar
    15    23    24   ar
    16    24    25   ar
    17    25    26   ar
    18    25    27    1
    19    27    28    1
    20    28    29    1
    21    11    12    1
    22    12    13    2
    23    13    15    1
    24    15    16   ar
    25    16    17   ar
    26    17    18   ar
    27    18    19   ar
    28    13    14    1
    29    14     2    1
    30     8     3   ar
    31    14    10    1
    32    26    21   ar
    33    19    15   ar
    34    29    24    1
@<TRIPOS>MOLECULE
*****
 29 34 0 0 0
SMALL
GASTEIGER

@<TRIPOS>ATOM
      1 O         143.3934  142.5447  167.3396 O.2     1  UNL1       -0.2904
      2 C         142.4587  142.3116  166.1898 C.2     1  UNL1        0.1885
      3 C         142.6760  143.0273  164.8896 C.ar    1  UNL1        0.0700
      4 C         143.8281  143.9760  164.7391 C.ar    1  UNL1        0.0059
      5 C         144.0454  144.6917  163.4389 C.ar    1  UNL1        0.0003
      6 C         143.1107  144.4586  162.2892 C.ar    1  UNL1        0.0031
      7 C         141.9586  143.5098  162.4396 C.ar    1  UNL1        0.0376
      8 C         141.7413  142.7942  163.7398 C.ar    1  UNL1        0.1476
      9 O         140.5892  141.8454  163.8903 O.3     1  UNL1       -0.4557
     10 C         140.3719  141.1298  165.1905 C.2     1  UNL1        0.1491
     11 C         139.3312  140.1438  165.6318 C.2     1  UNL1        0.0940
     12 N         139.6226  139.7676  167.0543 N.2     1  UNL1       -0.2480
     13 C         140.8436  140.5210  167.4921 C.2     1  UNL1        0.0966
     14 C         141.3067  141.3629  166.3403 C.3     1  UNL1        0.1621
     15 C         141.4883  140.4457  168.8444 C.ar    1  UNL1        0.1251
     16 N         142.7244  139.6695  169.1899 N.ar    1  UNL1       -0.2356
     17 C         143.0101  139.8775  170.6477 C.ar    1  UNL1        0.1065
     18 C         141.9505  140.7824  171.2032 C.ar    1  UNL1        0.0575
     19 S         141.0099  141.1336  170.0887 S.2     1  UNL1       -0.0647
     20 C         138.1979  139.6252  164.7971 C.3     1  UNL1        0.0750
     21 C         138.3796  139.4357  163.3203 C.ar    1  UNL1       -0.0129
     22 C         138.9790  138.1647  162.7955 C.ar    1  UNL1       -0.0006
     23 C         139.1608  137.9750  161.3186 C.ar    1  UNL1        0.0399
     24 C         138.7432  139.0564  160.3666 C.ar    1  UNL1        0.1764
     25 C         138.1439  140.3273  160.8915 C.ar    1  UNL1        0.1761
     26 C         137.9620  140.5170  162.3682 C.ar    1  UNL1        0.0363
     27 O         137.8291  141.2098  159.7200 O.3     1  UNL1       -0.4346
     28 C         138.2340  140.4841  158.4712 C.3     1  UNL1        0.4294
     29 O         138.7990  139.1533  158.8708 O.3     1  UNL1       -0.4346
@<TRIPOS>BOND
     1     1     2    2
     2     2     3    1
     3     3     4   ar
     4     4     5   ar
     5     5     6   ar
     6     6     7   ar
     7     7     8   ar
     8     8     9    1
     9     9    10    1
    10    10    11    2
    11    11    20    1
    12    20    21    1
    13    21    22   ar
    14    22    23   ar
    15    23    24   ar
    16    24    25   ar
    17    25    26   ar
    18    25    27    1
    19    27    28    1
    20    28    29    1
    21    11    12    1
    22    12    13    2
    23    13    15    1
    24    15    16   ar
    25    16    17   ar
    26    17    18   ar
    27    18    19   ar
    28    13    14    1
    29    14     2    1
    30     8     3   ar
    31    14    10    1
    32    26    21   ar
    33    19    15   ar
    34    29    24    1
@<TRIPOS>MOLECULE
*****
 29 34 0 0 0
SMALL
GASTEIGER

@<TRIPOS>ATOM
      1 O         140.3125  142.9163  167.3901 O.2     1  UNL1       -0.2904
      2 C         140.2014  142.1226  166.1222 C.2     1  UNL1        0.1885
      3 C         139.3890  142.6493  164.9764 C.ar    1  UNL1        0.0700
      4 C         138.6877  143.9696  165.0986 C.ar    1  UNL1        0.0059
      5 C         137.8753  144.4962  163.9529 C.ar    1  UNL1        0.0003
      6 C         137.7643  143.7025  162.6850 C.ar    1  UNL1        0.0031
      7 C         138.4656  142.3822  162.5627 C.ar    1  UNL1        0.0376
      8 C         139.2779  141.8556  163.7085 C.ar    1  UNL1        0.1476
      9 O         139.9793  140.5352  163.5863 O.3     1  UNL1       -0.4557
     10 C         140.7916  140.0087  164.7320 C.2     1  UNL1        0.1491
     11 C         141.5885  138.7493  164.9022 C.2     1  UNL1        0.0940
     12 N         142.1921  138.7646  166.2753 N.2     1  UNL1       -0.2480
     13 C         141.7682  140.0335  166.9538 C.2     1  UNL1        0.0966
     14 C         140.9027  140.8024  166.0000 C.3     1  UNL1        0.1621
     15 C         142.1439  140.4589  168.3423 C.ar    1  UNL1        0.1251
     16 N         143.1014  141.5569  168.6993 N.ar    1  UNL1       -0.2356
     17 C         143.1773  141.6375  170.1953 C.ar    1  UNL1        0.1065
     18 C         142.2666  140.5893  170.7627 C.ar    1  UNL1        0.0575
     19 S         141.6280  139.8608  169.6175 S.2     1  UNL1       -0.0647
     20 C         141.7529  137.6649  163.8789 C.3     1  UNL1        0.0750
     21 C         142.2504  138.0003  162.5041 C.ar    1  UNL1       -0.0129
     22 C         143.6956  138.3413  162.2920 C.ar    1  UNL1       -0.0006
     23 C         144.1932  138.6767  160.9172 C.ar    1  UNL1        0.0399
     24 C         143.2455  138.6710  159.7545 C.ar    1  UNL1        0.1764
     25 C         141.8003  138.3299  159.9667 C.ar    1  UNL1        0.1761
     26 C         141.3027  137.9946  161.3414 C.ar    1  UNL1        0.0363
     27 O         141.1064  138.4055  158.6389 O.3     1  UNL1       -0.4346
     28 C         142.1229  138.7933  157.6062 C.3     1  UNL1        0.4294
     29 O         143.4449  138.9573  158.2957 O.3     1  UNL1       -0.4346
@<TRIPOS>BOND
     1     1     2    2
     2     2     3    1
     3     3     4   ar
     4     4     5   ar
     5     5     6   ar
     6     6     7   ar
     7     7     8   ar
     8     8     9    1
     9     9    10    1
    10    10    11    2
    11    11    20    1
    12    20    21    1
    13    21    22   ar
    14    22    23   ar
    15    23    24   ar
    16    24    25   ar
    17    25    26   ar
    18    25    27    1
    19    27    28    1
    20    28    29    1
    21    11    12    1
    22    12    13    2
    23    13    15    1
    24    15    16   ar
    25    16    17   ar
    26    17    18   ar
    27    18    19   ar
    28    13    14    1
    29    14     2    1
    30     8     3   ar
    31    14    10    1
    32    26    21   ar
    33    19    15   ar
    34    29    24    1
@<TRIPOS>MOLECULE
*****
 29 34 0 0 0
SMALL
GASTEIGER

@<TRIPOS>ATOM
      1 O         143.1101  142.0587  167.4161 O.2     1  UNL1       -0.2904
      2 C         142.6572  141.3579  166.1695 C.2     1  UNL1        0.1885
      3 C         143.4629  141.4733  164.9094 C.ar    1  UNL1        0.0700
      4 C         144.7213  142.2894  164.8960 C.ar    1  UNL1        0.0059
      5 C         145.5269  142.4047  163.6359 C.ar    1  UNL1        0.0003
      6 C         145.0740  141.7040  162.3894 C.ar    1  UNL1        0.0031
      7 C         143.8155  140.8879  162.4029 C.ar    1  UNL1        0.0376
      8 C         143.0100  140.7726  163.6629 C.ar    1  UNL1        0.1476
      9 O         141.7514  139.9565  163.6764 O.3     1  UNL1       -0.4557
     10 C         140.9458  139.8412  164.9365 C.2     1  UNL1        0.1491
     11 C         139.6725  139.1132  165.2506 C.2     1  UNL1        0.0940
     12 N         139.3384  139.3640  166.6912 N.2     1  UNL1       -0.2480
     13 C         140.4053  140.2470  167.2675 C.2     1  UNL1        0.0966
     14 C         141.3987  140.5419  166.1830 C.3     1  UNL1        0.1621
     15 C         140.4678  140.7472  168.6802 C.ar    1  UNL1        0.1251
     16 N         140.1084  142.1280  169.1433 N.ar    1  UNL1       -0.2356
     17 C         140.3192  142.1887  170.6273 C.ar    1  UNL1        0.1065
     18 C         140.8088  140.8454  171.0812 C.ar    1  UNL1        0.0575
     19 S         140.9007  139.9546  169.8779 S.2     1  UNL1       -0.0647
     20 C         138.8735  138.2806  164.2923 C.3     1  UNL1        0.0750
     21 C         138.7248  138.7155  162.8644 C.ar    1  UNL1       -0.0129
     22 C         137.7766  139.8234  162.5128 C.ar    1  UNL1       -0.0006
     23 C         137.6278  140.2584  161.0849 C.ar    1  UNL1        0.0399
     24 C         138.4273  139.5855  160.0088 C.ar    1  UNL1        0.1764
     25 C         139.3754  138.4777  160.3604 C.ar    1  UNL1        0.1761
     26 C         139.5242  138.0427  161.7882 C.ar    1  UNL1        0.0363
     27 O         140.0258  138.0047  159.0941 O.3     1  UNL1       -0.4346
     28 C         139.4795  138.8203  157.9599 C.3     1  UNL1        0.4294
     29 O         138.4916  139.7973  158.5252 O.3     1  UNL1       -0.4346
@<TRIPOS>BOND
     1     1     2    2
     2     2     3    1
     3     3     4   ar
     4     4     5   ar
     5     5     6   ar
     6     6     7   ar
     7     7     8   ar
     8     8     9    1
     9     9    10    1
    10    10    11    2
    11    11    20    1
    12    20    21    1
    13    21    22   ar
    14    22    23   ar
    15    23    24   ar
    16    24    25   ar
    17    25    26   ar
    18    25    27    1
    19    27    28    1
    20    28    29    1
    21    11    12    1
    22    12    13    2
    23    13    15    1
    24    15    16   ar
    25    16    17   ar
    26    17    18   ar
    27    18    19   ar
    28    13    14    1
    29    14     2    1
    30     8     3   ar
    31    14    10    1
    32    26    21   ar
    33    19    15   ar
    34    29    24    1
@<TRIPOS>MOLECULE
*****
 29 34 0 0 0
SMALL
GASTEIGER

@<TRIPOS>ATOM
      1 O         139.7788  139.6145  167.8179 O.2     1  UNL1       -0.2904
      2 C         140.5766  139.8774  166.5752 C.2     1  UNL1        0.1885
      3 C         140.2668  139.1290  165.3127 C.ar    1  UNL1        0.0700
      4 C         139.1592  138.1177  165.2929 C.ar    1  UNL1        0.0059
      5 C         138.8495  137.3693  164.0304 C.ar    1  UNL1        0.0003
      6 C         139.6473  137.6322  162.7877 C.ar    1  UNL1        0.0031
      7 C         140.7549  138.6436  162.8075 C.ar    1  UNL1        0.0376
      8 C         141.0647  139.3919  164.0700 C.ar    1  UNL1        0.1476
      9 O         142.1723  140.4033  164.0898 O.3     1  UNL1       -0.4557
     10 C         142.4820  141.1517  165.3523 C.2     1  UNL1        0.1491
     11 C         143.5068  142.1992  165.6724 C.2     1  UNL1        0.0940
     12 N         143.3424  142.5837  167.1130 N.2     1  UNL1       -0.2480
     13 C         142.2159  141.7738  167.6831 C.2     1  UNL1        0.0966
     14 C         141.6842  140.8887  166.5950 C.3     1  UNL1        0.1621
     15 C         141.7100  141.8376  169.0938 C.ar    1  UNL1        0.1251
     16 N         142.2043  141.0140  170.2459 N.ar    1  UNL1       -0.2356
     17 C         141.4207  141.4037  171.4642 C.ar    1  UNL1        0.1065
     18 C         140.4421  142.4681  171.0649 C.ar    1  UNL1        0.0575
     19 S         140.6209  142.7363  169.6000 S.2     1  UNL1       -0.0647
     20 C         144.5185  142.7632  164.7193 C.3     1  UNL1        0.0750
     21 C         144.1776  142.9141  163.2664 C.ar    1  UNL1       -0.0129
     22 C         144.9274  142.1252  162.2342 C.ar    1  UNL1       -0.0006
     23 C         144.5865  142.2760  160.7812 C.ar    1  UNL1        0.0399
     24 C         143.4958  143.2158  160.3605 C.ar    1  UNL1        0.1764
     25 C         142.7459  144.0047  161.3926 C.ar    1  UNL1        0.1761
     26 C         143.0868  143.8539  162.8455 C.ar    1  UNL1        0.0363
     27 O         141.7281  144.8474  160.6827 O.3     1  UNL1       -0.4346
     28 C         141.8489  144.5792  159.2118 C.3     1  UNL1        0.4294
     29 O         142.9414  143.5709  159.0127 O.3     1  UNL1       -0.4346
@<TRIPOS>BOND
     1     1     2    2
     2     2     3    1
     3     3     4   ar
     4     4     5   ar
     5     5     6   ar
     6     6     7   ar
     7     7     8   ar
     8     8     9    1
     9     9    10    1
    10    10    11    2
    11    11    20    1
    12    20    21    1
    13    21    22   ar
    14    22    23   ar
    15    23    24   ar
    16    24    25   ar
    17    25    26   ar
    18    25    27    1
    19    27    28    1
    20    28    29    1
    21    11    12    1
    22    12    13    2
    23    13    15    1
    24    15    16   ar
    25    16    17   ar
    26    17    18   ar
    27    18    19   ar
    28    13    14    1
    29    14     2    1
    30     8     3   ar
    31    14    10    1
    32    26    21   ar
    33    19    15   ar
    34    29    24    1
@<TRIPOS>MOLECULE
*****
 29 34 0 0 0
SMALL
GASTEIGER

@<TRIPOS>ATOM
      1 O         139.3992  138.7088  166.2564 O.2     1  UNL1       -0.2904
      2 C         139.7833  139.6574  165.1597 C.2     1  UNL1        0.1885
      3 C         139.3999  139.3581  163.7407 C.ar    1  UNL1        0.0700
      4 C         138.6326  138.1103  163.4184 C.ar    1  UNL1        0.0059
      5 C         138.2492  137.8110  161.9995 C.ar    1  UNL1        0.0003
      6 C         138.6333  138.7597  160.9028 C.ar    1  UNL1        0.0031
      7 C         139.4006  140.0075  161.2251 C.ar    1  UNL1        0.0376
      8 C         139.7839  140.3068  162.6441 C.ar    1  UNL1        0.1476
      9 O         140.5513  141.5547  162.9665 O.3     1  UNL1       -0.4557
     10 C         140.9347  141.8539  164.3854 C.2     1  UNL1        0.1491
     11 C         141.6852  142.9966  165.0027 C.2     1  UNL1        0.0940
     12 N         141.7650  142.7542  166.4808 N.2     1  UNL1       -0.2480
     13 C         141.0638  141.4617  166.7771 C.2     1  UNL1        0.0966
     14 C         140.5506  140.9053  165.4821 C.3     1  UNL1        0.1621
     15 C         140.9039  140.8355  168.1307 C.ar    1  UNL1        0.1251
     16 N         139.7133  140.9764  169.0322 N.ar    1  UNL1       -0.2356
     17 C         139.9800  140.1864  170.2792 C.ar    1  UNL1        0.1065
     18 C         141.3355  139.5574  170.1483 C.ar    1  UNL1        0.0575
     19 S         141.9065  139.9586  168.8205 S.2     1  UNL1       -0.0647
     20 C         142.2557  144.1748  164.2704 C.3     1  UNL1        0.0750
     21 C         141.6049  144.6611  163.0094 C.ar    1  UNL1       -0.0129
     22 C         140.3106  145.4162  163.0765 C.ar    1  UNL1       -0.0006
     23 C         139.6597  145.9025  161.8156 C.ar    1  UNL1        0.0399
     24 C         140.3031  145.6336  160.4876 C.ar    1  UNL1        0.1764
     25 C         141.5974  144.8785  160.4205 C.ar    1  UNL1        0.1761
     26 C         142.2483  144.3922  161.6814 C.ar    1  UNL1        0.0363
     27 O         141.9934  144.7644  158.9781 O.3     1  UNL1       -0.4346
     28 C         140.9438  145.4491  158.1539 C.3     1  UNL1        0.4294
     29 O         139.8991  145.9863  159.0867 O.3     1  UNL1       -0.4346
@<TRIPOS>BOND
     1     1     2    2
     2     2     3    1
     3     3     4   ar
     4     4     5   ar
     5     5     6   ar
     6     6     7   ar
     7     7     8   ar
     8     8     9    1
     9     9    10    1
    10    10    11    2
    11    11    20    1
    12    20    21    1
    13    21    22   ar
    14    22    23   ar
    15    23    24   ar
    16    24    25   ar
    17    25    26   ar
    18    25    27    1
    19    27    28    1
    20    28    29    1
    21    11    12    1
    22    12    13    2
    23    13    15    1
    24    15    16   ar
    25    16    17   ar
    26    17    18   ar
    27    18    19   ar
    28    13    14    1
    29    14     2    1
    30     8     3   ar
    31    14    10    1
    32    26    21   ar
    33    19    15   ar
    34    29    24    1
@<TRIPOS>MOLECULE
*****
 29 34 0 0 0
SMALL
GASTEIGER

@<TRIPOS>ATOM
      1 O         141.0951  141.7015  158.9960 O.2     1  UNL1       -0.2904
      2 C         140.4847  141.7375  160.3658 C.2     1  UNL1        0.1885
      3 C         140.1640  143.0538  161.0097 C.ar    1  UNL1        0.0700
      4 C         140.4538  144.3341  160.2839 C.ar    1  UNL1        0.0059
      5 C         140.1331  145.6503  160.9278 C.ar    1  UNL1        0.0003
      6 C         139.5227  145.6862  162.2975 C.ar    1  UNL1        0.0031
      7 C         139.2330  144.4059  163.0233 C.ar    1  UNL1        0.0376
      8 C         139.5536  143.0897  162.3794 C.ar    1  UNL1        0.1476
      9 O         139.2639  141.8093  163.1052 O.3     1  UNL1       -0.4557
     10 C         139.5846  140.4931  162.4613 C.2     1  UNL1        0.1491
     11 C         139.4130  139.0784  162.9295 C.2     1  UNL1        0.0940
     12 N         139.9173  138.1681  161.8492 N.2     1  UNL1       -0.2480
     13 C         140.4006  139.0203  160.7133 C.2     1  UNL1        0.0966
     14 C         140.1950  140.4572  161.0916 C.3     1  UNL1        0.1621
     15 C         140.9867  138.5229  159.4252 C.ar    1  UNL1        0.1251
     16 N         140.2242  138.2137  158.1710 N.ar    1  UNL1       -0.2356
     17 C         141.2044  137.7471  157.1358 C.ar    1  UNL1        0.1065
     18 C         142.5726  137.7678  157.7503 C.ar    1  UNL1        0.0575
     19 S         142.4380  138.2473  159.1653 S.2     1  UNL1       -0.0647
     20 C         138.8380  138.6493  164.2468 C.3     1  UNL1        0.0750
     21 C         139.4947  139.0754  165.5263 C.ar    1  UNL1       -0.0129
     22 C         140.9787  139.2895  165.5725 C.ar    1  UNL1       -0.0006
     23 C         141.6356  139.7156  166.8520 C.ar    1  UNL1        0.0399
     24 C         140.8084  139.9276  168.0852 C.ar    1  UNL1        0.1764
     25 C         139.3245  139.7135  168.0390 C.ar    1  UNL1        0.1761
     26 C         138.6677  139.2874  166.7596 C.ar    1  UNL1        0.0363
     27 O         138.7724  139.9977  169.4045 O.3     1  UNL1       -0.4346
     28 C         139.9151  140.3874  170.2946 C.3     1  UNL1        0.4294
     29 O         141.1734  140.3441  169.4792 O.3     1  UNL1       -0.4346
@<TRIPOS>BOND
     1     1     2    2
     2     2     3    1
     3     3     4   ar
     4     4     5   ar
     5     5     6   ar
     6     6     7   ar
     7     7     8   ar
     8     8     9    1
     9     9    10    1
    10    10    11    2
    11    11    20    1
    12    20    21    1
    13    21    22   ar
    14    22    23   ar
    15    23    24   ar
    16    24    25   ar
    17    25    26   ar
    18    25    27    1
    19    27    28    1
    20    28    29    1
    21    11    12    1
    22    12    13    2
    23    13    15    1
    24    15    16   ar
    25    16    17   ar
    26    17    18   ar
    27    18    19   ar
    28    13    14    1
    29    14     2    1
    30     8     3   ar
    31    14    10    1
    32    26    21   ar
    33    19    15   ar
    34    29    24    1
@<TRIPOS>MOLECULE
*****
 29 34 0 0 0
SMALL
GASTEIGER

@<TRIPOS>ATOM
      1 O         142.7616  139.8281  167.3708 O.2     1  UNL1       -0.2904
      2 C         142.4395  140.6944  166.1894 C.2     1  UNL1        0.1885
      3 C         143.1374  140.4681  164.8809 C.ar    1  UNL1        0.0700
      4 C         144.1572  139.3756  164.7540 C.ar    1  UNL1        0.0059
      5 C         144.8550  139.1493  163.4456 C.ar    1  UNL1        0.0003
      6 C         144.5329  140.0156  162.2642 C.ar    1  UNL1        0.0031
      7 C         143.5130  141.1082  162.3911 C.ar    1  UNL1        0.0376
      8 C         142.8153  141.3344  163.6995 C.ar    1  UNL1        0.1476
      9 O         141.7953  142.4271  163.8265 O.3     1  UNL1       -0.4557
     10 C         141.0976  142.6533  165.1349 C.2     1  UNL1        0.1491
     11 C         140.0549  143.6452  165.5580 C.2     1  UNL1        0.0940
     12 N         139.7326  143.3919  167.0009 N.2     1  UNL1       -0.2480
     13 C         140.5760  142.2435  167.4695 C.2     1  UNL1        0.0966
     14 C         141.4197  141.7870  166.3163 C.3     1  UNL1        0.1621
     15 C         140.5760  141.6548  168.8492 C.ar    1  UNL1        0.1251
     16 N         139.8842  140.3918  169.2688 N.ar    1  UNL1       -0.2356
     17 C         140.1483  140.1822  170.7305 C.ar    1  UNL1        0.1065
     18 C         141.0033  141.3159  171.2142 C.ar    1  UNL1        0.0575
     19 S         141.2676  142.2260  170.0515 S.2     1  UNL1       -0.0647
     20 C         139.4421  144.7044  164.6904 C.3     1  UNL1        0.0750
     21 C         139.6054  144.6408  163.2007 C.ar    1  UNL1       -0.0129
     22 C         140.5465  145.5816  162.5085 C.ar    1  UNL1       -0.0006
     23 C         140.7098  145.5181  161.0188 C.ar    1  UNL1        0.0399
     24 C         139.9320  144.5137  160.2212 C.ar    1  UNL1        0.1764
     25 C         138.9909  143.5728  160.9134 C.ar    1  UNL1        0.1761
     26 C         138.8276  143.6364  162.4031 C.ar    1  UNL1        0.0363
     27 O         138.3626  142.6956  159.8713 O.3     1  UNL1       -0.4346
     28 C         138.9154  143.0944  158.5352 C.3     1  UNL1        0.4294
     29 O         139.8854  144.2180  158.7514 O.3     1  UNL1       -0.4346
@<TRIPOS>BOND
     1     1     2    2
     2     2     3    1
     3     3     4   ar
     4     4     5   ar
     5     5     6   ar
     6     6     7   ar
     7     7     8   ar
     8     8     9    1
     9     9    10    1
    10    10    11    2
    11    11    20    1
    12    20    21    1
    13    21    22   ar
    14    22    23   ar
    15    23    24   ar
    16    24    25   ar
    17    25    26   ar
    18    25    27    1
    19    27    28    1
    20    28    29    1
    21    11    12    1
    22    12    13    2
    23    13    15    1
    24    15    16   ar
    25    16    17   ar
    26    17    18   ar
    27    18    19   ar
    28    13    14    1
    29    14     2    1
    30     8     3   ar
    31    14    10    1
    32    26    21   ar
    33    19    15   ar
    34    29    24    1
@<TRIPOS>MOLECULE
*****
 29 34 0 0 0
SMALL
GASTEIGER

@<TRIPOS>ATOM
      1 O         140.3181  141.6216  160.5617 O.2     1  UNL1       -0.2904
      2 C         140.4735  141.7053  162.0513 C.2     1  UNL1        0.1885
      3 C         139.5888  142.6182  162.8475 C.ar    1  UNL1        0.0700
      4 C         138.5488  143.4475  162.1542 C.ar    1  UNL1        0.0059
      5 C         137.6642  144.3603  162.9505 C.ar    1  UNL1        0.0003
      6 C         137.8196  144.4440  164.4401 C.ar    1  UNL1        0.0031
      7 C         138.8596  143.6148  165.1334 C.ar    1  UNL1        0.0376
      8 C         139.7442  142.7019  164.3371 C.ar    1  UNL1        0.1476
      9 O         140.7843  141.8726  165.0304 O.3     1  UNL1       -0.4557
     10 C         141.6689  140.9597  164.2342 C.2     1  UNL1        0.1491
     11 C         142.7738  140.0290  164.6379 C.2     1  UNL1        0.0940
     12 N         143.3012  139.3701  163.3979 N.2     1  UNL1       -0.2480
     13 C         142.5223  139.8936  162.2278 C.2     1  UNL1        0.0966
     14 C         141.5135  140.8761  162.7446 C.3     1  UNL1        0.1621
     15 C         142.7179  139.5032  160.7927 C.ar    1  UNL1        0.1251
     16 N         143.6285  140.1796  159.8112 N.ar    1  UNL1       -0.2356
     17 C         143.5106  139.4623  158.4991 C.ar    1  UNL1        0.1065
     18 C         142.5270  138.3427  158.6697 C.ar    1  UNL1        0.0575
     19 S         142.0371  138.3680  160.0872 S.2     1  UNL1       -0.0647
     20 C         143.2649  139.7977  166.0362 C.3     1  UNL1        0.0750
     21 C         142.4273  140.2236  167.2054 C.ar    1  UNL1       -0.0129
     22 C         142.9435  141.2589  168.1602 C.ar    1  UNL1       -0.0006
     23 C         142.1059  141.6849  169.3295 C.ar    1  UNL1        0.0399
     24 C         140.7522  141.0755  169.5439 C.ar    1  UNL1        0.1764
     25 C         140.2360  140.0402  168.5890 C.ar    1  UNL1        0.1761
     26 C         141.0735  139.6142  167.4198 C.ar    1  UNL1        0.0363
     27 O         138.8732  139.6195  169.0537 O.3     1  UNL1       -0.4346
     28 C         138.5471  140.3948  170.2957 C.3     1  UNL1        0.4294
     29 O         139.7084  141.2947  170.5986 O.3     1  UNL1       -0.4346
@<TRIPOS>BOND
     1     1     2    2
     2     2     3    1
     3     3     4   ar
     4     4     5   ar
     5     5     6   ar
     6     6     7   ar
     7     7     8   ar
     8     8     9    1
     9     9    10    1
    10    10    11    2
    11    11    20    1
    12    20    21    1
    13    21    22   ar
    14    22    23   ar
    15    23    24   ar
    16    24    25   ar
    17    25    26   ar
    18    25    27    1
    19    27    28    1
    20    28    29    1
    21    11    12    1
    22    12    13    2
    23    13    15    1
    24    15    16   ar
    25    16    17   ar
    26    17    18   ar
    27    18    19   ar
    28    13    14    1
    29    14     2    1
    30     8     3   ar
    31    14    10    1
    32    26    21   ar
    33    19    15   ar
    34    29    24    1
