@<TRIPOS>MOLECULE
*****
 34 37 0 0 0
SMALL
GASTEIGER

@<TRIPOS>ATOM
      1 C         141.6008  143.6640  162.0655 C.3     1  UNL1        0.1751
      2 C         141.8905  143.9035  160.6133 C.ar    1  UNL1        0.0089
      3 C         142.8227  143.2288  159.6512 C.ar    1  UNL1       -0.0021
      4 C         142.8994  143.6968  158.2282 C.ar    1  UNL1       -0.0003
      5 C         142.0439  144.8394  157.7672 C.ar    1  UNL1        0.0001
      6 C         141.1117  145.5141  158.7293 C.ar    1  UNL1        0.0043
      7 C         141.0350  145.0462  160.1524 C.ar    1  UNL1        0.0516
      8 C         140.2166  145.5128  161.3197 C.2     1  UNL1        0.2493
      9 O         139.2230  146.6364  161.3068 O.2     1  UNL1       -0.2699
     10 N         140.5663  144.6586  162.5020 N.am    1  UNL1       -0.2661
     11 O         141.7664  141.1916  162.8463 O.2     1  UNL1       -0.2729
     12 C         142.2345  142.6141  162.9294 C.2     1  UNL1        0.2451
     13 N         143.3364  142.9870  163.8765 N.am    1  UNL1       -0.2988
     14 H         143.6437  143.9207  163.9311 H       1  UNL1        0.1498
     15 C         143.9701  141.9371  164.7404 C.3     1  UNL1        0.1164
     16 C         143.2229  141.3829  165.9170 C.ar    1  UNL1       -0.0024
     17 C         142.6625  142.3104  166.9542 C.ar    1  UNL1        0.0005
     18 C         141.9153  141.7561  168.1308 C.ar    1  UNL1        0.0369
     19 C         141.7284  140.2743  168.2703 C.ar    1  UNL1        0.1468
     20 C         142.2888  139.3468  167.2331 C.ar    1  UNL1        0.0369
     21 C         143.0361  139.9011  166.0565 C.ar    1  UNL1        0.0005
     22 O         140.9812  139.7201  169.4469 O.3     1  UNL1       -0.4045
     23 C         139.6547  140.3027  169.8351 C.3     1  UNL1        0.5753
     24 F         138.3281  140.8853  170.2233 F       1  UNL1       -0.1328
     25 F         139.0543  139.7838  168.5622 F       1  UNL1       -0.1328
     26 F         140.2550  140.8216  171.1080 F       1  UNL1       -0.1328
     27 C         139.9838  144.7779  163.8791 C.3     1  UNL1        0.0944
     28 C         138.6896  144.0946  164.2079 C.3     1  UNL1        0.0217
     29 C         138.6140  142.5965  164.2184 C.3     1  UNL1        0.0067
     30 C         139.3100  141.8179  165.2952 C.3     1  UNL1        0.0322
     31 C         139.2343  140.3199  165.3057 C.3     1  UNL1        0.1422
     32 O         138.4628  139.6004  164.2393 O.3     1  UNL1       -0.3538
     33 C         137.7669  140.3790  163.1625 C.3     1  UNL1        0.1422
     34 C         137.8425  141.8771  163.1520 C.3     1  UNL1        0.0322
@<TRIPOS>BOND
     1    11    12    2
     2    12    13   am
     3    13    15    1
     4    15    16    1
     5    16    17   ar
     6    17    18   ar
     7    18    19   ar
     8    19    22    1
     9    22    23    1
    10    23    24    1
    11    23    25    1
    12    23    26    1
    13    19    20   ar
    14    20    21   ar
    15    12     1    1
    16     1     2    1
    17     2     3   ar
    18     3     4   ar
    19     4     5   ar
    20     5     6   ar
    21     6     7   ar
    22     7     8    1
    23     8     9    2
    24     8    10   am
    25    10    27    1
    26    27    28    1
    27    28    29    1
    28    29    30    1
    29    30    31    1
    30    31    32    1
    31    32    33    1
    32    33    34    1
    33    21    16   ar
    34    10     1    1
    35    34    29    1
    36     7     2   ar
    37    13    14    1
@<TRIPOS>MOLECULE
*****
 34 37 0 0 0
SMALL
GASTEIGER

@<TRIPOS>ATOM
      1 C         141.3382  140.7000  166.6768 C.3     1  UNL1        0.1751
      2 C         141.1509  141.4444  167.9654 C.ar    1  UNL1        0.0089
      3 C         141.9256  142.5602  168.6018 C.ar    1  UNL1       -0.0021
      4 C         141.4905  143.1155  169.9255 C.ar    1  UNL1       -0.0003
      5 C         140.2808  142.5551  170.6129 C.ar    1  UNL1        0.0001
      6 C         139.5062  141.4394  169.9766 C.ar    1  UNL1        0.0043
      7 C         139.9412  140.8840  168.6529 C.ar    1  UNL1        0.0516
      8 C         139.3809  139.7932  167.7890 C.2     1  UNL1        0.2493
      9 O         138.1698  138.9621  168.0931 O.2     1  UNL1       -0.2699
     10 N         140.2443  139.6795  166.5677 N.am    1  UNL1       -0.2661
     11 O         142.4809  142.2259  164.9116 O.2     1  UNL1       -0.2729
     12 C         142.4281  140.9348  165.6733 C.2     1  UNL1        0.2451
     13 N         143.4654  139.8785  165.4315 N.am    1  UNL1       -0.2988
     14 H         143.4308  139.0311  165.9314 H       1  UNL1        0.1498
     15 C         144.5553  140.1133  164.4281 C.3     1  UNL1        0.1164
     16 C         144.3072  139.8415  162.9739 C.ar    1  UNL1       -0.0024
     17 C         144.4295  140.9511  161.9720 C.ar    1  UNL1        0.0005
     18 C         144.1813  140.6792  160.5179 C.ar    1  UNL1        0.0369
     19 C         143.8108  139.2978  160.0656 C.ar    1  UNL1        0.1468
     20 C         143.6885  138.1882  161.0676 C.ar    1  UNL1        0.0369
     21 C         143.9367  138.4601  162.5218 C.ar    1  UNL1        0.0005
     22 O         143.5627  139.0260  158.6115 O.3     1  UNL1       -0.4045
     23 C         142.3052  138.3299  158.1825 C.3     1  UNL1        0.5753
     24 F         141.0476  137.6339  157.7535 F       1  UNL1       -0.1328
     25 F         141.4960  139.5027  158.6515 F       1  UNL1       -0.1328
     26 F         143.1143  137.1572  157.7135 F       1  UNL1       -0.1328
     27 C         140.0482  138.7146  165.4360 C.3     1  UNL1        0.0944
     28 C         138.7196  138.6290  164.7452 C.3     1  UNL1        0.0217
     29 C         138.2831  139.7261  163.8201 C.3     1  UNL1        0.0067
     30 C         138.1260  139.4524  162.3536 C.3     1  UNL1        0.0322
     31 C         137.6895  140.5495  161.4285 C.3     1  UNL1        0.1422
     32 O         137.4103  141.9203  161.9698 O.3     1  UNL1       -0.3538
     33 C         137.5674  142.1940  163.4362 C.3     1  UNL1        0.1422
     34 C         138.0039  141.0968  164.3614 C.3     1  UNL1        0.0322
@<TRIPOS>BOND
     1    11    12    2
     2    12    13   am
     3    13    15    1
     4    15    16    1
     5    16    17   ar
     6    17    18   ar
     7    18    19   ar
     8    19    22    1
     9    22    23    1
    10    23    24    1
    11    23    25    1
    12    23    26    1
    13    19    20   ar
    14    20    21   ar
    15    12     1    1
    16     1     2    1
    17     2     3   ar
    18     3     4   ar
    19     4     5   ar
    20     5     6   ar
    21     6     7   ar
    22     7     8    1
    23     8     9    2
    24     8    10   am
    25    10    27    1
    26    27    28    1
    27    28    29    1
    28    29    30    1
    29    30    31    1
    30    31    32    1
    31    32    33    1
    32    33    34    1
    33    21    16   ar
    34    10     1    1
    35    34    29    1
    36     7     2   ar
    37    13    14    1
@<TRIPOS>MOLECULE
*****
 34 37 0 0 0
SMALL
GASTEIGER

@<TRIPOS>ATOM
      1 C         140.0106  142.6733  161.4419 C.3     1  UNL1        0.1751
      2 C         140.4530  142.9332  160.0324 C.ar    1  UNL1        0.0089
      3 C         141.0280  142.0336  158.9789 C.ar    1  UNL1       -0.0021
      4 C         141.3827  142.5882  157.6311 C.ar    1  UNL1       -0.0003
      5 C         141.1624  144.0425  157.3369 C.ar    1  UNL1        0.0001
      6 C         140.5874  144.9421  158.3904 C.ar    1  UNL1        0.0043
      7 C         140.2327  144.3875  159.7382 C.ar    1  UNL1        0.0516
      8 C         139.6541  145.0263  160.9659 C.2     1  UNL1        0.2493
      9 O         139.2788  146.4709  161.1145 O.2     1  UNL1       -0.2699
     10 N         139.5168  143.9668  162.0188 N.am    1  UNL1       -0.2661
     11 O         138.7948  140.7575  162.7075 O.2     1  UNL1       -0.2729
     12 C         140.0542  141.3517  162.1502 C.2     1  UNL1        0.2451
     13 N         141.3574  140.6243  162.3010 N.am    1  UNL1       -0.2988
     14 H         142.1841  141.0142  161.9352 H       1  UNL1        0.1498
     15 C         141.4011  139.3027  163.0092 C.3     1  UNL1        0.1164
     16 C         141.8309  139.2350  164.4447 C.ar    1  UNL1       -0.0024
     17 C         143.1824  138.6887  164.7980 C.ar    1  UNL1        0.0005
     18 C         143.6121  138.6210  166.2335 C.ar    1  UNL1        0.0369
     19 C         142.6904  139.0997  167.3158 C.ar    1  UNL1        0.1468
     20 C         141.3388  139.6460  166.9625 C.ar    1  UNL1        0.0369
     21 C         140.9091  139.7137  165.5269 C.ar    1  UNL1        0.0005
     22 O         143.1202  139.0320  168.7513 O.3     1  UNL1       -0.4045
     23 C         142.5239  139.9708  169.7579 C.3     1  UNL1        0.5753
     24 F         141.9277  140.9095  170.7644 F       1  UNL1       -0.1328
     25 F         141.6256  138.8742  170.2484 F       1  UNL1       -0.1328
     26 F         143.4223  141.0673  169.2673 F       1  UNL1       -0.1328
     27 C         138.9800  144.1660  163.4053 C.3     1  UNL1        0.0944
     28 C         139.8909  144.6309  164.5026 C.3     1  UNL1        0.0217
     29 C         141.3599  144.3357  164.4335 C.3     1  UNL1        0.0067
     30 C         141.8940  143.0511  164.9947 C.3     1  UNL1        0.0322
     31 C         143.3630  142.7559  164.9256 C.3     1  UNL1        0.1422
     32 O         144.2980  143.7452  164.2952 O.3     1  UNL1       -0.3538
     33 C         143.7639  145.0296  163.7341 C.3     1  UNL1        0.1422
     34 C         142.2949  145.3248  163.8032 C.3     1  UNL1        0.0322
@<TRIPOS>BOND
     1    11    12    2
     2    12    13   am
     3    13    15    1
     4    15    16    1
     5    16    17   ar
     6    17    18   ar
     7    18    19   ar
     8    19    22    1
     9    22    23    1
    10    23    24    1
    11    23    25    1
    12    23    26    1
    13    19    20   ar
    14    20    21   ar
    15    12     1    1
    16     1     2    1
    17     2     3   ar
    18     3     4   ar
    19     4     5   ar
    20     5     6   ar
    21     6     7   ar
    22     7     8    1
    23     8     9    2
    24     8    10   am
    25    10    27    1
    26    27    28    1
    27    28    29    1
    28    29    30    1
    29    30    31    1
    30    31    32    1
    31    32    33    1
    32    33    34    1
    33    21    16   ar
    34    10     1    1
    35    34    29    1
    36     7     2   ar
    37    13    14    1
@<TRIPOS>MOLECULE
*****
 34 37 0 0 0
SMALL
GASTEIGER

@<TRIPOS>ATOM
      1 C         141.1767  141.4734  166.8221 C.3     1  UNL1        0.1751
      2 C         141.4206  141.6990  168.2849 C.ar    1  UNL1        0.0089
      3 C         142.4193  142.5454  169.0171 C.ar    1  UNL1       -0.0021
      4 C         142.4240  142.5715  170.5168 C.ar    1  UNL1       -0.0003
      5 C         141.4300  141.7512  171.2843 C.ar    1  UNL1        0.0001
      6 C         140.4314  140.9048  170.5521 C.ar    1  UNL1        0.0043
      7 C         140.4266  140.8787  169.0524 C.ar    1  UNL1        0.0516
      8 C         139.5685  140.1461  168.0640 C.2     1  UNL1        0.2493
      9 O         138.4442  139.2102  168.3958 O.2     1  UNL1       -0.2699
     10 N         140.0321  140.5136  166.6856 N.am    1  UNL1       -0.2661
     11 O         143.2417  141.4960  165.2456 O.2     1  UNL1       -0.2729
     12 C         141.9430  142.0979  165.6940 C.2     1  UNL1        0.2451
     13 N         141.4106  143.3244  165.0140 N.am    1  UNL1       -0.2988
     14 H         140.5582  143.7195  165.3082 H       1  UNL1        0.1498
     15 C         142.1769  143.9490  163.8859 C.3     1  UNL1        0.1164
     16 C         141.7718  143.6829  162.4663 C.ar    1  UNL1       -0.0024
     17 C         141.2775  144.8065  161.6043 C.ar    1  UNL1        0.0005
     18 C         140.8724  144.5404  160.1848 C.ar    1  UNL1        0.0369
     19 C         140.9616  143.1507  159.6272 C.ar    1  UNL1        0.1468
     20 C         141.4559  142.0271  160.4893 C.ar    1  UNL1        0.0369
     21 C         141.8610  142.2932  161.9089 C.ar    1  UNL1        0.0005
     22 O         140.5564  142.8846  158.2077 O.3     1  UNL1       -0.4045
     23 C         139.1079  142.9271  157.8206 C.3     1  UNL1        0.5753
     24 F         137.6593  142.9695  157.4335 F       1  UNL1       -0.1328
     25 F         138.9065  141.5693  158.4255 F       1  UNL1       -0.1328
     26 F         139.3093  144.2848  157.2156 F       1  UNL1       -0.1328
     27 C         139.4528  140.0099  165.3970 C.3     1  UNL1        0.0944
     28 C         138.1169  140.5073  164.9300 C.3     1  UNL1        0.0217
     29 C         138.0384  141.6605  163.9740 C.3     1  UNL1        0.0067
     30 C         137.9312  143.0624  164.4971 C.3     1  UNL1        0.0322
     31 C         137.8527  144.2156  163.5411 C.3     1  UNL1        0.1422
     32 O         137.8812  143.9670  162.0621 O.3     1  UNL1       -0.3538
     33 C         137.9884  142.5652  161.5391 C.3     1  UNL1        0.1422
     34 C         138.0669  141.4120  162.4951 C.3     1  UNL1        0.0322
@<TRIPOS>BOND
     1    11    12    2
     2    12    13   am
     3    13    15    1
     4    15    16    1
     5    16    17   ar
     6    17    18   ar
     7    18    19   ar
     8    19    22    1
     9    22    23    1
    10    23    24    1
    11    23    25    1
    12    23    26    1
    13    19    20   ar
    14    20    21   ar
    15    12     1    1
    16     1     2    1
    17     2     3   ar
    18     3     4   ar
    19     4     5   ar
    20     5     6   ar
    21     6     7   ar
    22     7     8    1
    23     8     9    2
    24     8    10   am
    25    10    27    1
    26    27    28    1
    27    28    29    1
    28    29    30    1
    29    30    31    1
    30    31    32    1
    31    32    33    1
    32    33    34    1
    33    21    16   ar
    34    10     1    1
    35    34    29    1
    36     7     2   ar
    37    13    14    1
@<TRIPOS>MOLECULE
*****
 34 37 0 0 0
SMALL
GASTEIGER

@<TRIPOS>ATOM
      1 C         140.4840  138.6305  161.3842 C.3     1  UNL1        0.1751
      2 C         141.0567  138.5483  160.0003 C.ar    1  UNL1        0.0089
      3 C         142.3891  138.0840  159.4914 C.ar    1  UNL1       -0.0021
      4 C         142.6837  138.1182  158.0210 C.ar    1  UNL1       -0.0003
      5 C         141.6458  138.6167  157.0596 C.ar    1  UNL1        0.0001
      6 C         140.3135  139.0811  157.5685 C.ar    1  UNL1        0.0043
      7 C         140.0189  139.0469  159.0389 C.ar    1  UNL1        0.0516
      8 C         138.8048  139.4372  159.8286 C.2     1  UNL1        0.2493
      9 O         137.5275  139.9881  159.2674 O.2     1  UNL1       -0.2699
     10 N         139.0923  139.1798  161.2782 N.am    1  UNL1       -0.2661
     11 O         140.9796  136.8593  163.2193 O.2     1  UNL1       -0.2729
     12 C         141.1808  138.2331  162.6517 C.2     1  UNL1        0.2451
     13 N         142.0790  139.2096  163.3518 N.am    1  UNL1       -0.2988
     14 H         142.2111  140.1113  162.9793 H       1  UNL1        0.1498
     15 C         142.7757  138.8121  164.6193 C.3     1  UNL1        0.1164
     16 C         142.4010  139.4641  165.9172 C.ar    1  UNL1       -0.0024
     17 C         142.9484  138.9331  167.2088 C.ar    1  UNL1        0.0005
     18 C         142.5736  139.5851  168.5067 C.ar    1  UNL1        0.0369
     19 C         141.6515  140.7681  168.5129 C.ar    1  UNL1        0.1468
     20 C         141.1041  141.2992  167.2213 C.ar    1  UNL1        0.0369
     21 C         141.4789  140.6471  165.9234 C.ar    1  UNL1        0.0005
     22 O         141.2767  141.4201  169.8108 O.3     1  UNL1       -0.4045
     23 C         140.9144  142.8753  169.8421 C.3     1  UNL1        0.5753
     24 F         140.5522  144.3305  169.8734 F       1  UNL1       -0.1328
     25 F         142.3483  143.2377  169.5918 F       1  UNL1       -0.1328
     26 F         139.4806  142.5129  170.0924 F       1  UNL1       -0.1328
     27 C         138.1530  139.4282  162.4210 C.3     1  UNL1        0.0944
     28 C         138.5531  140.3511  163.5337 C.3     1  UNL1        0.0217
     29 C         138.7269  141.8168  163.2666 C.3     1  UNL1        0.0067
     30 C         140.0813  142.3605  162.9197 C.3     1  UNL1        0.0322
     31 C         140.2552  143.8262  162.6526 C.3     1  UNL1        0.1422
     32 O         139.0747  144.7483  162.7324 O.3     1  UNL1       -0.3538
     33 C         137.7204  144.2046  163.0792 C.3     1  UNL1        0.1422
     34 C         137.5465  142.7389  163.3463 C.3     1  UNL1        0.0322
@<TRIPOS>BOND
     1    11    12    2
     2    12    13   am
     3    13    15    1
     4    15    16    1
     5    16    17   ar
     6    17    18   ar
     7    18    19   ar
     8    19    22    1
     9    22    23    1
    10    23    24    1
    11    23    25    1
    12    23    26    1
    13    19    20   ar
    14    20    21   ar
    15    12     1    1
    16     1     2    1
    17     2     3   ar
    18     3     4   ar
    19     4     5   ar
    20     5     6   ar
    21     6     7   ar
    22     7     8    1
    23     8     9    2
    24     8    10   am
    25    10    27    1
    26    27    28    1
    27    28    29    1
    28    29    30    1
    29    30    31    1
    30    31    32    1
    31    32    33    1
    32    33    34    1
    33    21    16   ar
    34    10     1    1
    35    34    29    1
    36     7     2   ar
    37    13    14    1
@<TRIPOS>MOLECULE
*****
 34 37 0 0 0
SMALL
GASTEIGER

@<TRIPOS>ATOM
      1 C         141.8505  142.0972  161.2741 C.3     1  UNL1        0.1751
      2 C         141.3255  141.6856  159.9306 C.ar    1  UNL1        0.0089
      3 C         140.8971  140.3558  159.3848 C.ar    1  UNL1       -0.0021
      4 C         140.4052  140.2482  157.9719 C.ar    1  UNL1       -0.0003
      5 C         140.3417  141.4705  157.1048 C.ar    1  UNL1        0.0001
      6 C         140.7700  142.8004  157.6505 C.ar    1  UNL1        0.0043
      7 C         141.2619  142.9079  159.0635 C.ar    1  UNL1        0.0516
      8 C         141.7476  144.0749  159.8711 C.2     1  UNL1        0.2493
      9 O         141.8514  145.4939  159.3958 O.2     1  UNL1       -0.2699
     10 N         142.1114  143.5739  161.2373 N.am    1  UNL1       -0.2661
     11 O         140.9074  140.5356  163.1240 O.2     1  UNL1       -0.2729
     12 C         142.0751  141.1912  162.4483 C.2     1  UNL1        0.2451
     13 N         143.4676  140.9407  162.9468 N.am    1  UNL1       -0.2988
     14 H         144.2340  141.3710  162.5033 H       1  UNL1        0.1498
     15 C         143.6922  140.0347  164.1209 C.3     1  UNL1        0.1164
     16 C         143.3107  140.4854  165.4997 C.ar    1  UNL1       -0.0024
     17 C         143.4088  141.9360  165.8686 C.ar    1  UNL1        0.0005
     18 C         143.0273  142.3867  167.2475 C.ar    1  UNL1        0.0369
     19 C         142.5477  141.3868  168.2576 C.ar    1  UNL1        0.1468
     20 C         142.4495  139.9362  167.8887 C.ar    1  UNL1        0.0369
     21 C         142.8311  139.4855  166.5097 C.ar    1  UNL1        0.0005
     22 O         142.1662  141.8376  169.6364 O.3     1  UNL1       -0.4045
     23 C         141.4809  143.1576  169.8312 C.3     1  UNL1        0.5753
     24 F         140.7956  144.4776  170.0261 F       1  UNL1       -0.1328
     25 F         142.6965  143.6849  170.5342 F       1  UNL1       -0.1328
     26 F         140.2653  142.6302  169.1283 F       1  UNL1       -0.1328
     27 C         142.6427  144.4038  162.3682 C.3     1  UNL1        0.0944
     28 C         141.6956  145.1503  163.2602 C.3     1  UNL1        0.0217
     29 C         140.3811  144.5357  163.6401 C.3     1  UNL1        0.0067
     30 C         139.1442  144.8678  162.8592 C.3     1  UNL1        0.0322
     31 C         137.8297  144.2531  163.2391 C.3     1  UNL1        0.1422
     32 O         137.7522  143.3063  164.4000 O.3     1  UNL1       -0.3538
     33 C         138.9891  142.9742  165.1809 C.3     1  UNL1        0.1422
     34 C         140.3035  143.5889  164.8009 C.3     1  UNL1        0.0322
@<TRIPOS>BOND
     1    11    12    2
     2    12    13   am
     3    13    15    1
     4    15    16    1
     5    16    17   ar
     6    17    18   ar
     7    18    19   ar
     8    19    22    1
     9    22    23    1
    10    23    24    1
    11    23    25    1
    12    23    26    1
    13    19    20   ar
    14    20    21   ar
    15    12     1    1
    16     1     2    1
    17     2     3   ar
    18     3     4   ar
    19     4     5   ar
    20     5     6   ar
    21     6     7   ar
    22     7     8    1
    23     8     9    2
    24     8    10   am
    25    10    27    1
    26    27    28    1
    27    28    29    1
    28    29    30    1
    29    30    31    1
    30    31    32    1
    31    32    33    1
    32    33    34    1
    33    21    16   ar
    34    10     1    1
    35    34    29    1
    36     7     2   ar
    37    13    14    1
@<TRIPOS>MOLECULE
*****
 34 37 0 0 0
SMALL
GASTEIGER

@<TRIPOS>ATOM
      1 C         140.6291  140.6861  166.8171 C.3     1  UNL1        0.1751
      2 C         141.3674  141.2724  167.9838 C.ar    1  UNL1        0.0089
      3 C         142.6605  142.0268  168.0768 C.ar    1  UNL1       -0.0021
      4 C         143.1591  142.4989  169.4104 C.ar    1  UNL1       -0.0003
      5 C         142.3645  142.2166  170.6510 C.ar    1  UNL1        0.0001
      6 C         141.0715  141.4621  170.5579 C.ar    1  UNL1        0.0043
      7 C         140.5729  140.9900  169.2244 C.ar    1  UNL1        0.0516
      8 C         139.3435  140.2293  168.8243 C.2     1  UNL1        0.2493
      9 O         138.2683  139.7419  169.7497 O.2     1  UNL1       -0.2699
     10 N         139.3783  140.0414  167.3366 N.am    1  UNL1       -0.2661
     11 O         140.1098  141.2013  164.3241 O.2     1  UNL1       -0.2729
     12 C         141.0651  140.7358  165.3827 C.2     1  UNL1        0.2451
     13 N         142.4565  140.3199  165.0069 N.am    1  UNL1       -0.2988
     14 H         143.0835  140.0143  165.7017 H       1  UNL1        0.1498
     15 C         142.8925  140.3696  163.5725 C.3     1  UNL1        0.1164
     16 C         142.6448  141.6031  162.7557 C.ar    1  UNL1       -0.0024
     17 C         143.1461  142.9331  163.2350 C.ar    1  UNL1        0.0005
     18 C         142.8984  144.1666  162.4181 C.ar    1  UNL1        0.0369
     19 C         142.1494  144.0700  161.1220 C.ar    1  UNL1        0.1468
     20 C         141.6482  142.7400  160.6428 C.ar    1  UNL1        0.0369
     21 C         141.8959  141.5064  161.4597 C.ar    1  UNL1        0.0005
     22 O         141.9018  145.3035  160.3053 O.3     1  UNL1       -0.4045
     23 C         140.9047  145.2737  159.1851 C.3     1  UNL1        0.5753
     24 F         139.9075  145.2439  158.0649 F       1  UNL1       -0.1328
     25 F         142.0125  145.0219  158.2057 F       1  UNL1       -0.1328
     26 F         139.7968  145.5255  160.1646 F       1  UNL1       -0.1328
     27 C         138.3438  139.3333  166.5129 C.3     1  UNL1        0.0944
     28 C         138.6173  137.9547  165.9889 C.3     1  UNL1        0.0217
     29 C         139.3082  137.7772  164.6694 C.3     1  UNL1        0.0067
     30 C         138.6103  138.1643  163.3993 C.3     1  UNL1        0.0322
     31 C         139.3013  137.9868  162.0798 C.3     1  UNL1        0.1422
     32 O         140.6901  137.4222  162.0304 O.3     1  UNL1       -0.3538
     33 C         141.3880  137.0351  163.3005 C.3     1  UNL1        0.1422
     34 C         140.6970  137.2126  164.6200 C.3     1  UNL1        0.0322
@<TRIPOS>BOND
     1    11    12    2
     2    12    13   am
     3    13    15    1
     4    15    16    1
     5    16    17   ar
     6    17    18   ar
     7    18    19   ar
     8    19    22    1
     9    22    23    1
    10    23    24    1
    11    23    25    1
    12    23    26    1
    13    19    20   ar
    14    20    21   ar
    15    12     1    1
    16     1     2    1
    17     2     3   ar
    18     3     4   ar
    19     4     5   ar
    20     5     6   ar
    21     6     7   ar
    22     7     8    1
    23     8     9    2
    24     8    10   am
    25    10    27    1
    26    27    28    1
    27    28    29    1
    28    29    30    1
    29    30    31    1
    30    31    32    1
    31    32    33    1
    32    33    34    1
    33    21    16   ar
    34    10     1    1
    35    34    29    1
    36     7     2   ar
    37    13    14    1
@<TRIPOS>MOLECULE
*****
 34 37 0 0 0
SMALL
GASTEIGER

@<TRIPOS>ATOM
      1 C         141.9299  137.6557  157.9712 C.3     1  UNL1        0.1751
      2 C         142.2937  136.7263  156.8515 C.ar    1  UNL1        0.0089
      3 C         143.5707  136.0172  156.5104 C.ar    1  UNL1       -0.0021
      4 C         143.6373  135.1325  155.3009 C.ar    1  UNL1       -0.0003
      5 C         142.4268  134.9568  154.4326 C.ar    1  UNL1        0.0001
      6 C         141.1498  135.6658  154.7737 C.ar    1  UNL1        0.0043
      7 C         141.0832  136.5506  155.9832 C.ar    1  UNL1        0.0516
      8 C         139.9714  137.3714  156.5663 C.2     1  UNL1        0.2493
      9 O         138.5805  137.4886  156.0171 O.2     1  UNL1       -0.2699
     10 N         140.4946  138.0544  157.7950 N.am    1  UNL1       -0.2661
     11 O         143.8177  139.2197  158.8314 O.2     1  UNL1       -0.2729
     12 C         142.8414  138.1071  159.0737 C.2     1  UNL1        0.2451
     13 N         142.7765  137.4459  160.4186 N.am    1  UNL1       -0.2988
     14 H         142.1356  136.7157  160.5777 H       1  UNL1        0.1498
     15 C         143.6880  137.8973  161.5211 C.3     1  UNL1        0.1164
     16 C         143.1181  138.2893  162.8521 C.ar    1  UNL1       -0.0024
     17 C         143.8378  139.2855  163.7121 C.ar    1  UNL1        0.0005
     18 C         143.2678  139.6774  165.0431 C.ar    1  UNL1        0.0369
     19 C         141.9782  139.0731  165.5141 C.ar    1  UNL1        0.1468
     20 C         141.2585  138.0770  164.6541 C.ar    1  UNL1        0.0369
     21 C         141.8285  137.6850  163.3230 C.ar    1  UNL1        0.0005
     22 O         141.4083  139.4651  166.8451 O.3     1  UNL1       -0.4045
     23 C         140.7123  140.7843  167.0039 C.3     1  UNL1        0.5753
     24 F         140.0162  142.1035  167.1627 F       1  UNL1       -0.1328
     25 F         139.4243  140.1584  166.5574 F       1  UNL1       -0.1328
     26 F         142.0002  141.4102  167.4504 F       1  UNL1       -0.1328
     27 C         139.7189  138.9746  158.6903 C.3     1  UNL1        0.0944
     28 C         139.2780  138.5069  160.0456 C.3     1  UNL1        0.0217
     29 C         139.3809  139.4263  161.2263 C.3     1  UNL1        0.0067
     30 C         138.3393  139.3814  162.3048 C.3     1  UNL1        0.0322
     31 C         138.4422  140.3007  163.4856 C.3     1  UNL1        0.1422
     32 O         139.5867  141.2649  163.5879 O.3     1  UNL1       -0.3538
     33 C         140.6283  141.3098  162.5094 C.3     1  UNL1        0.1422
     34 C         140.5254  140.3904  161.3287 C.3     1  UNL1        0.0322
@<TRIPOS>BOND
     1    11    12    2
     2    12    13   am
     3    13    15    1
     4    15    16    1
     5    16    17   ar
     6    17    18   ar
     7    18    19   ar
     8    19    22    1
     9    22    23    1
    10    23    24    1
    11    23    25    1
    12    23    26    1
    13    19    20   ar
    14    20    21   ar
    15    12     1    1
    16     1     2    1
    17     2     3   ar
    18     3     4   ar
    19     4     5   ar
    20     5     6   ar
    21     6     7   ar
    22     7     8    1
    23     8     9    2
    24     8    10   am
    25    10    27    1
    26    27    28    1
    27    28    29    1
    28    29    30    1
    29    30    31    1
    30    31    32    1
    31    32    33    1
    32    33    34    1
    33    21    16   ar
    34    10     1    1
    35    34    29    1
    36     7     2   ar
    37    13    14    1
@<TRIPOS>MOLECULE
*****
 34 37 0 0 0
SMALL
GASTEIGER

@<TRIPOS>ATOM
      1 C         138.7856  142.1770  161.4520 C.3     1  UNL1        0.1751
      2 C         138.9825  141.5648  160.0968 C.ar    1  UNL1        0.0089
      3 C         138.7973  140.1647  159.5915 C.ar    1  UNL1       -0.0021
      4 C         139.0785  139.8429  158.1537 C.ar    1  UNL1       -0.0003
      5 C         139.5449  140.9213  157.2212 C.ar    1  UNL1        0.0001
      6 C         139.7302  142.3214  157.7265 C.ar    1  UNL1        0.0043
      7 C         139.4489  142.6431  159.1643 C.ar    1  UNL1        0.0516
      8 C         139.5404  143.9218  159.9432 C.2     1  UNL1        0.2493
      9 O         139.9669  145.2546  159.4029 O.2     1  UNL1       -0.2699
     10 N         139.1304  143.6338  161.3570 N.am    1  UNL1       -0.2661
     11 O         136.9349  141.6767  163.2054 O.2     1  UNL1       -0.2729
     12 C         138.3249  141.4586  162.6855 C.2     1  UNL1        0.2451
     13 N         139.2542  140.5221  163.3992 N.am    1  UNL1       -0.2988
     14 H         140.1665  140.3789  163.0580 H       1  UNL1        0.1498
     15 C         138.7935  139.8037  164.6328 C.3     1  UNL1        0.1164
     16 C         139.2064  140.2986  165.9872 C.ar    1  UNL1       -0.0024
     17 C         139.9698  141.5834  166.1156 C.ar    1  UNL1        0.0005
     18 C         140.3827  142.0783  167.4700 C.ar    1  UNL1        0.0369
     19 C         140.0322  141.2885  168.6962 C.ar    1  UNL1        0.1468
     20 C         139.2687  140.0037  168.5678 C.ar    1  UNL1        0.0369
     21 C         138.8558  139.5088  167.2132 C.ar    1  UNL1        0.0005
     22 O         140.4451  141.7835  170.0506 O.3     1  UNL1       -0.4045
     23 C         141.6389  142.6811  170.1893 C.3     1  UNL1        0.5753
     24 F         142.8326  143.5787  170.3279 F       1  UNL1       -0.1328
     25 F         142.5372  141.4805  170.2271 F       1  UNL1       -0.1328
     26 F         140.7405  143.8817  170.1514 F       1  UNL1       -0.1328
     27 C         139.0750  144.6279  162.4789 C.3     1  UNL1        0.0944
     28 C         139.8974  144.4111  163.7144 C.3     1  UNL1        0.0217
     29 C         141.3773  144.1941  163.6018 C.3     1  UNL1        0.0067
     30 C         141.9159  142.8190  163.3391 C.3     1  UNL1        0.0322
     31 C         143.3959  142.6020  163.2264 C.3     1  UNL1        0.1422
     32 O         144.3372  143.7602  163.3766 O.3     1  UNL1       -0.3538
     33 C         143.7986  145.1353  163.6393 C.3     1  UNL1        0.1422
     34 C         142.3187  145.3522  163.7519 C.3     1  UNL1        0.0322
@<TRIPOS>BOND
     1    11    12    2
     2    12    13   am
     3    13    15    1
     4    15    16    1
     5    16    17   ar
     6    17    18   ar
     7    18    19   ar
     8    19    22    1
     9    22    23    1
    10    23    24    1
    11    23    25    1
    12    23    26    1
    13    19    20   ar
    14    20    21   ar
    15    12     1    1
    16     1     2    1
    17     2     3   ar
    18     3     4   ar
    19     4     5   ar
    20     5     6   ar
    21     6     7   ar
    22     7     8    1
    23     8     9    2
    24     8    10   am
    25    10    27    1
    26    27    28    1
    27    28    29    1
    28    29    30    1
    29    30    31    1
    30    31    32    1
    31    32    33    1
    32    33    34    1
    33    21    16   ar
    34    10     1    1
    35    34    29    1
    36     7     2   ar
    37    13    14    1
