@<TRIPOS>MOLECULE
*****
 47 52 0 0 0
SMALL
GASTEIGER

@<TRIPOS>ATOM
      1 O         139.5954  146.0067  160.6187 O.2     1  UNL1       -0.2724
      2 C         140.3340  144.7054  160.7239 C.2     1  UNL1        0.2499
      3 N         140.4207  143.7940  159.5357 N.am    1  UNL1       -0.2763
      4 C         141.1213  142.4683  159.4906 C.3     1  UNL1        0.0950
      5 C         140.9556  141.9033  158.1110 C.3     1  UNL1        0.0390
      6 C         140.1528  142.8797  157.3035 C.3     1  UNL1        0.0758
      7 C         139.8222  144.0482  158.1840 C.3     1  UNL1        0.1091
      8 C         140.9859  144.3156  162.0174 C.3     1  UNL1        0.1596
      9 O         142.0788  145.1484  161.4155 O.3     1  UNL1       -0.3780
     10 C         139.6667  143.6182  162.1701 C.3     1  UNL1        0.0573
     11 C         139.3790  142.8202  163.4071 C.3     1  UNL1        0.0951
     12 N         140.4104  142.7196  164.4916 N.pl3   1  UNL1       -0.2931
     13 C         141.7296  143.4170  164.3389 C.3     1  UNL1        0.0951
     14 C         142.0174  144.2150  163.1018 C.3     1  UNL1        0.0573
     15 H         141.7933  145.4797  160.5497 H       1  UNL1        0.2109
     16 C         140.1227  141.9216  165.7286 C.ar    1  UNL1        0.1316
     17 C         139.2969  140.6724  165.6403 C.ar    1  UNL1        0.0382
     18 C         139.0092  139.8745  166.8773 C.ar    1  UNL1        0.0757
     19 C         139.5472  140.3256  168.2029 C.ar    1  UNL1        0.0246
     20 C         140.3730  141.5747  168.2913 C.ar    1  UNL1        0.1002
     21 N         140.6607  142.3727  167.0542 N.ar    1  UNL1       -0.2292
     22 C         138.1834  138.6253  166.7890 C.3     1  UNL1        0.4187
     23 F         137.3577  137.3762  166.7005 F       1  UNL1       -0.1659
     24 F         138.7627  138.3383  165.4355 F       1  UNL1       -0.1659
     25 F         137.6042  138.9125  168.1425 F       1  UNL1       -0.1659
     26 N         139.7510  142.7163  155.8676 N.3     1  UNL1       -0.2982
     27 H         140.4947  142.1873  155.4122 H       1  UNL1        0.1232
     28 C         138.4605  142.0338  155.5228 C.3     1  UNL1        0.0542
     29 C         138.2810  141.4074  154.1718 C.3     1  UNL1        0.0185
     30 C         136.9905  140.7249  153.8271 C.3     1  UNL1        0.0340
     31 C         135.8795  140.6689  154.8334 C.3     1  UNL1        0.1231
     32 O         135.2366  139.9344  153.6945 O.3     1  UNL1       -0.3812
     33 C         136.0591  141.2954  156.1844 C.3     1  UNL1        0.0340
     34 C         137.3496  141.9778  156.5291 C.3     1  UNL1        0.0185
     35 H         135.8550  139.8897  152.9484 H       1  UNL1        0.2107
     36 C         134.5453  140.3578  155.4441 C.ar    1  UNL1        0.0830
     37 C         133.3833  141.2787  155.2169 C.ar    1  UNL1        0.0172
     38 C         132.0490  140.9674  155.8276 C.ar    1  UNL1        0.0059
     39 C         131.8769  139.7353  156.6656 C.ar    1  UNL1        0.0549
     40 C         133.0389  138.8144  156.8929 C.ar    1  UNL1        0.1015
     41 N         134.3731  139.1256  156.2821 N.ar    1  UNL1       -0.2458
     42 C         130.5426  139.4241  157.2764 C.ar    1  UNL1        0.1638
     43 N         130.4364  138.3944  158.3619 N.ar    1  UNL1       -0.2250
     44 C         129.1021  138.0833  158.9725 C.ar    1  UNL1        0.1022
     45 C         127.8741  138.8019  158.4977 C.ar    1  UNL1        0.0414
     46 C         127.9802  139.8316  157.4122 C.ar    1  UNL1        0.1022
     47 N         129.3146  140.1428  156.8015 N.ar    1  UNL1       -0.2250
@<TRIPOS>BOND
     1     1     2    2
     2     2     3   am
     3     3     4    1
     4     4     5    1
     5     5     6    1
     6     6    26    1
     7    28    26    1
     8    28    29    1
     9    29    30    1
    10    30    31    1
    11    31    32    1
    12    31    36    1
    13    36    37   ar
    14    37    38   ar
    15    38    39   ar
    16    39    42    1
    17    42    43   ar
    18    43    44   ar
    19    44    45   ar
    20    45    46   ar
    21    46    47   ar
    22    39    40   ar
    23    40    41   ar
    24    31    33    1
    25    33    34    1
    26     6     7    1
    27     2     8    1
    28     8     9    1
    29     8    10    1
    30    10    11    1
    31    11    12    1
    32    12    16    1
    33    16    17   ar
    34    17    18   ar
    35    18    22    1
    36    22    23    1
    37    22    24    1
    38    22    25    1
    39    18    19   ar
    40    19    20   ar
    41    20    21   ar
    42    12    13    1
    43    13    14    1
    44     7     3    1
    45    14     8    1
    46    34    28    1
    47    21    16   ar
    48    41    36   ar
    49    47    42   ar
    50    26    27    1
    51    32    35    1
    52     9    15    1
@<TRIPOS>MOLECULE
*****
 47 52 0 0 0
SMALL
GASTEIGER

@<TRIPOS>ATOM
      1 O         137.3592  140.5134  160.9905 O.2     1  UNL1       -0.2724
      2 C         138.4359  141.5561  161.0474 C.2     1  UNL1        0.2499
      3 N         139.3656  141.7384  159.8844 N.am    1  UNL1       -0.2763
      4 C         140.4837  142.7346  159.7972 C.3     1  UNL1        0.0950
      5 C         141.1495  142.5684  158.4633 C.3     1  UNL1        0.0390
      6 C         140.4429  141.4696  157.7262 C.3     1  UNL1        0.0758
      7 C         139.3404  140.9567  158.6045 C.3     1  UNL1        0.1091
      8 C         138.5830  142.4165  162.2672 C.3     1  UNL1        0.1596
      9 O         137.6059  143.2413  161.4830 O.3     1  UNL1       -0.3780
     10 C         139.5090  141.2929  162.6278 C.3     1  UNL1        0.0573
     11 C         140.2427  141.3162  163.9359 C.3     1  UNL1        0.0951
     12 N         140.0505  142.4631  164.8834 N.pl3   1  UNL1       -0.2931
     13 C         139.1245  143.5867  164.5228 C.3     1  UNL1        0.0951
     14 C         138.3907  143.5634  163.2146 C.3     1  UNL1        0.0573
     15 H         137.4093  142.7978  160.6430 H       1  UNL1        0.2109
     16 C         140.7842  142.4864  166.1915 C.ar    1  UNL1        0.1316
     17 C         140.0503  142.8165  167.4574 C.ar    1  UNL1        0.0382
     18 C         140.7840  142.8398  168.7654 C.ar    1  UNL1        0.0757
     19 C         142.2516  142.5329  168.8077 C.ar    1  UNL1        0.0246
     20 C         142.9856  142.2028  167.5419 C.ar    1  UNL1        0.1002
     21 N         142.2518  142.1795  166.2337 N.ar    1  UNL1       -0.2292
     22 C         140.0500  143.1699  170.0313 C.3     1  UNL1        0.4187
     23 F         139.3162  143.5001  171.2972 F       1  UNL1       -0.1659
     24 F         140.6484  144.5453  170.0194 F       1  UNL1       -0.1659
     25 F         139.4517  141.7944  170.0431 F       1  UNL1       -0.1659
     26 N         140.7796  140.9712  156.3521 N.3     1  UNL1       -0.2982
     27 H         141.2667  141.7298  155.8749 H       1  UNL1        0.1232
     28 C         141.6238  139.7425  156.1859 C.3     1  UNL1        0.0542
     29 C         143.0579  139.8690  155.7648 C.3     1  UNL1        0.0185
     30 C         143.9019  138.6403  155.5987 C.3     1  UNL1        0.0340
     31 C         143.3119  137.2850  155.8535 C.3     1  UNL1        0.1231
     32 O         144.7097  136.8937  155.4754 O.3     1  UNL1       -0.3812
     33 C         141.8779  137.1584  156.2746 C.3     1  UNL1        0.0340
     34 C         141.0338  138.3871  156.4408 C.3     1  UNL1        0.0185
     35 H         145.2260  137.6905  155.2767 H       1  UNL1        0.2107
     36 C         143.2075  135.7937  155.9771 C.ar    1  UNL1        0.0830
     37 C         142.9458  134.9568  154.7601 C.ar    1  UNL1        0.0172
     38 C         142.8413  133.4655  154.8838 C.ar    1  UNL1        0.0059
     39 C         142.9985  132.8112  156.2243 C.ar    1  UNL1        0.0549
     40 C         143.2603  133.6482  157.4413 C.ar    1  UNL1        0.1015
     41 N         143.3647  135.1394  157.3177 N.ar    1  UNL1       -0.2458
     42 C         142.8941  131.3199  156.3479 C.ar    1  UNL1        0.1638
     43 N         142.0734  130.5414  155.3628 N.ar    1  UNL1       -0.2250
     44 C         141.9690  129.0501  155.4865 C.ar    1  UNL1        0.1022
     45 C         142.6852  128.3375  156.5951 C.ar    1  UNL1        0.0414
     46 C         143.5059  129.1160  157.5802 C.ar    1  UNL1        0.1022
     47 N         143.6103  130.6073  157.4565 N.ar    1  UNL1       -0.2250
@<TRIPOS>BOND
     1     1     2    2
     2     2     3   am
     3     3     4    1
     4     4     5    1
     5     5     6    1
     6     6    26    1
     7    28    26    1
     8    28    29    1
     9    29    30    1
    10    30    31    1
    11    31    32    1
    12    31    36    1
    13    36    37   ar
    14    37    38   ar
    15    38    39   ar
    16    39    42    1
    17    42    43   ar
    18    43    44   ar
    19    44    45   ar
    20    45    46   ar
    21    46    47   ar
    22    39    40   ar
    23    40    41   ar
    24    31    33    1
    25    33    34    1
    26     6     7    1
    27     2     8    1
    28     8     9    1
    29     8    10    1
    30    10    11    1
    31    11    12    1
    32    12    16    1
    33    16    17   ar
    34    17    18   ar
    35    18    22    1
    36    22    23    1
    37    22    24    1
    38    22    25    1
    39    18    19   ar
    40    19    20   ar
    41    20    21   ar
    42    12    13    1
    43    13    14    1
    44     7     3    1
    45    14     8    1
    46    34    28    1
    47    21    16   ar
    48    41    36   ar
    49    47    42   ar
    50    26    27    1
    51    32    35    1
    52     9    15    1
@<TRIPOS>MOLECULE
*****
 47 52 0 0 0
SMALL
GASTEIGER

@<TRIPOS>ATOM
      1 O         144.7680  137.1236  155.7136 O.2     1  UNL1       -0.2724
      2 C         143.3713  136.5794  155.7660 C.2     1  UNL1        0.2499
      3 N         142.2736  137.3894  156.3896 N.am    1  UNL1       -0.2763
      4 C         140.8362  136.9787  156.5138 C.3     1  UNL1        0.0950
      5 C         140.0949  138.0879  157.1995 C.3     1  UNL1        0.0390
      6 C         141.0740  139.1840  157.4990 C.3     1  UNL1        0.0758
      7 C         142.4205  138.7524  156.9985 C.3     1  UNL1        0.1091
      8 C         143.0722  135.2250  155.1947 C.3     1  UNL1        0.1596
      9 O         142.8568  136.0745  153.9774 O.3     1  UNL1       -0.3780
     10 C         143.3914  134.8458  156.6105 C.3     1  UNL1        0.0573
     11 C         143.3368  133.4074  157.0321 C.3     1  UNL1        0.0951
     12 N         142.9629  132.3481  156.0381 N.pl3   1  UNL1       -0.2931
     13 C         142.6437  132.7273  154.6223 C.3     1  UNL1        0.0951
     14 C         142.6983  134.1658  154.2006 C.3     1  UNL1        0.0573
     15 H         143.0187  137.0048  154.1995 H       1  UNL1        0.2109
     16 C         142.9082  130.9096  156.4597 C.ar    1  UNL1        0.1316
     17 C         143.4878  130.4921  157.7788 C.ar    1  UNL1        0.0382
     18 C         143.4331  129.0537  158.2004 C.ar    1  UNL1        0.0757
     19 C         142.7989  128.0326  157.3030 C.ar    1  UNL1        0.0246
     20 C         142.2194  128.4500  155.9840 C.ar    1  UNL1        0.1002
     21 N         142.2740  129.8886  155.5623 N.ar    1  UNL1       -0.2292
     22 C         144.0126  128.6361  159.5195 C.3     1  UNL1        0.4187
     23 F         144.5922  128.2187  160.8385 F       1  UNL1       -0.1659
     24 F         145.3736  129.0649  159.0571 F       1  UNL1       -0.1659
     25 F         142.6516  128.2074  159.9817 F       1  UNL1       -0.1659
     26 N         140.7615  140.4837  158.1796 N.3     1  UNL1       -0.2982
     27 H         140.1679  141.0145  157.5422 H       1  UNL1        0.1232
     28 C         140.0753  140.4858  159.5135 C.3     1  UNL1        0.0542
     29 C         138.5889  140.3005  159.5925 C.3     1  UNL1        0.0185
     30 C         137.9027  140.3027  160.9263 C.3     1  UNL1        0.0340
     31 C         138.7029  140.4901  162.1811 C.3     1  UNL1        0.1231
     32 O         137.3287  140.3534  162.7665 O.3     1  UNL1       -0.3812
     33 C         140.1893  140.6753  162.1021 C.3     1  UNL1        0.0340
     34 C         140.8755  140.6732  160.7683 C.3     1  UNL1        0.0185
     35 H         136.6848  140.2226  162.0530 H       1  UNL1        0.2107
     36 C         139.0258  140.6300  163.6393 C.ar    1  UNL1        0.0830
     37 C         138.5297  139.6081  164.6188 C.ar    1  UNL1        0.0172
     38 C         138.8527  139.7481  166.0770 C.ar    1  UNL1        0.0059
     39 C         139.6717  140.9100  166.5555 C.ar    1  UNL1        0.0549
     40 C         140.1678  141.9320  165.5760 C.ar    1  UNL1        0.1015
     41 N         139.8449  141.7920  164.1179 N.ar    1  UNL1       -0.2458
     42 C         139.9946  141.0500  168.0137 C.ar    1  UNL1        0.1638
     43 N         140.5330  142.3467  168.5415 N.ar    1  UNL1       -0.2250
     44 C         140.8558  142.4866  169.9997 C.ar    1  UNL1        0.1022
     45 C         140.6403  141.3298  170.9299 C.ar    1  UNL1        0.0414
     46 C         140.1020  140.0331  170.4021 C.ar    1  UNL1        0.1022
     47 N         139.7791  139.8932  168.9439 N.ar    1  UNL1       -0.2250
@<TRIPOS>BOND
     1     1     2    2
     2     2     3   am
     3     3     4    1
     4     4     5    1
     5     5     6    1
     6     6    26    1
     7    28    26    1
     8    28    29    1
     9    29    30    1
    10    30    31    1
    11    31    32    1
    12    31    36    1
    13    36    37   ar
    14    37    38   ar
    15    38    39   ar
    16    39    42    1
    17    42    43   ar
    18    43    44   ar
    19    44    45   ar
    20    45    46   ar
    21    46    47   ar
    22    39    40   ar
    23    40    41   ar
    24    31    33    1
    25    33    34    1
    26     6     7    1
    27     2     8    1
    28     8     9    1
    29     8    10    1
    30    10    11    1
    31    11    12    1
    32    12    16    1
    33    16    17   ar
    34    17    18   ar
    35    18    22    1
    36    22    23    1
    37    22    24    1
    38    22    25    1
    39    18    19   ar
    40    19    20   ar
    41    20    21   ar
    42    12    13    1
    43    13    14    1
    44     7     3    1
    45    14     8    1
    46    34    28    1
    47    21    16   ar
    48    41    36   ar
    49    47    42   ar
    50    26    27    1
    51    32    35    1
    52     9    15    1
@<TRIPOS>MOLECULE
*****
 47 52 0 0 0
SMALL
GASTEIGER

@<TRIPOS>ATOM
      1 O         139.5480  145.8829  160.8097 O.2     1  UNL1       -0.2724
      2 C         140.4278  144.6695  160.7505 C.2     1  UNL1        0.2499
      3 N         140.4825  143.8431  159.4999 N.am    1  UNL1       -0.2763
      4 C         141.3110  142.6097  159.2937 C.3     1  UNL1        0.0950
      5 C         141.0589  142.1093  157.9023 C.3     1  UNL1        0.0390
      6 C         140.0745  143.0333  157.2486 C.3     1  UNL1        0.0758
      7 C         139.7183  144.1048  158.2360 C.3     1  UNL1        0.1091
      8 C         141.2529  144.2825  161.9419 C.3     1  UNL1        0.1596
      9 O         142.2584  145.0956  161.1817 O.3     1  UNL1       -0.3780
     10 C         139.9609  143.6038  162.2884 C.3     1  UNL1        0.0573
     11 C         139.8432  142.8206  163.5622 C.3     1  UNL1        0.0951
     12 N         141.0175  142.7160  164.4896 N.pl3   1  UNL1       -0.2931
     13 C         142.3095  143.3947  164.1431 C.3     1  UNL1        0.0951
     14 C         142.4272  144.1780  162.8693 C.3     1  UNL1        0.0573
     15 H         141.8562  145.4231  160.3620 H       1  UNL1        0.2109
     16 C         140.8998  141.9327  165.7634 C.ar    1  UNL1        0.1316
     17 C         141.9735  142.0310  166.8062 C.ar    1  UNL1        0.0382
     18 C         141.8558  141.2477  168.0800 C.ar    1  UNL1        0.0757
     19 C         140.6644  140.3661  168.3110 C.ar    1  UNL1        0.0246
     20 C         139.5906  140.2678  167.2682 C.ar    1  UNL1        0.1002
     21 N         139.7084  141.0511  165.9944 N.ar    1  UNL1       -0.2292
     22 C         142.9295  141.3460  169.1229 C.3     1  UNL1        0.4187
     23 F         144.0032  141.4443  170.1657 F       1  UNL1       -0.1659
     24 F         143.4270  142.6122  168.4912 F       1  UNL1       -0.1659
     25 F         142.4319  140.0797  169.7545 F       1  UNL1       -0.1659
     26 N         139.5402  142.9078  155.8526 N.3     1  UNL1       -0.2982
     27 H         140.2897  142.5123  155.2850 H       1  UNL1        0.1232
     28 C         138.3158  142.0821  155.5896 C.3     1  UNL1        0.0542
     29 C         138.2777  141.1505  154.4146 C.3     1  UNL1        0.0185
     30 C         137.0533  140.3249  154.1516 C.3     1  UNL1        0.0340
     31 C         135.8671  140.4309  155.0636 C.3     1  UNL1        0.1231
     32 O         135.3552  139.4133  154.0876 O.3     1  UNL1       -0.3812
     33 C         135.9052  141.3625  156.2385 C.3     1  UNL1        0.0340
     34 C         137.1296  142.1881  156.5015 C.3     1  UNL1        0.0185
     35 H         136.0343  139.2377  153.4176 H       1  UNL1        0.2107
     36 C         134.5031  140.1834  155.6365 C.ar    1  UNL1        0.0830
     37 C         133.3971  141.1667  155.3918 C.ar    1  UNL1        0.0172
     38 C         132.0331  140.9191  155.9648 C.ar    1  UNL1        0.0059
     39 C         131.7751  139.6883  156.7825 C.ar    1  UNL1        0.0549
     40 C         132.8812  138.7051  157.0272 C.ar    1  UNL1        0.1015
     41 N         134.2451  138.9526  156.4542 N.ar    1  UNL1       -0.2458
     42 C         130.4111  139.4409  157.3554 C.ar    1  UNL1        0.1638
     43 N         129.2224  140.1713  156.8046 N.ar    1  UNL1       -0.2250
     44 C         127.8584  139.9238  157.3776 C.ar    1  UNL1        0.1022
     45 C         127.6832  138.9458  158.5014 C.ar    1  UNL1        0.0414
     46 C         128.8719  138.2154  159.0522 C.ar    1  UNL1        0.1022
     47 N         130.2359  138.4629  158.4792 N.ar    1  UNL1       -0.2250
@<TRIPOS>BOND
     1     1     2    2
     2     2     3   am
     3     3     4    1
     4     4     5    1
     5     5     6    1
     6     6    26    1
     7    28    26    1
     8    28    29    1
     9    29    30    1
    10    30    31    1
    11    31    32    1
    12    31    36    1
    13    36    37   ar
    14    37    38   ar
    15    38    39   ar
    16    39    42    1
    17    42    43   ar
    18    43    44   ar
    19    44    45   ar
    20    45    46   ar
    21    46    47   ar
    22    39    40   ar
    23    40    41   ar
    24    31    33    1
    25    33    34    1
    26     6     7    1
    27     2     8    1
    28     8     9    1
    29     8    10    1
    30    10    11    1
    31    11    12    1
    32    12    16    1
    33    16    17   ar
    34    17    18   ar
    35    18    22    1
    36    22    23    1
    37    22    24    1
    38    22    25    1
    39    18    19   ar
    40    19    20   ar
    41    20    21   ar
    42    12    13    1
    43    13    14    1
    44     7     3    1
    45    14     8    1
    46    34    28    1
    47    21    16   ar
    48    41    36   ar
    49    47    42   ar
    50    26    27    1
    51    32    35    1
    52     9    15    1
@<TRIPOS>MOLECULE
*****
 47 52 0 0 0
SMALL
GASTEIGER

@<TRIPOS>ATOM
      1 O         137.6323  138.1562  161.6171 O.2     1  UNL1       -0.2724
      2 C         138.2462  139.5237  161.5616 C.2     1  UNL1        0.2499
      3 N         138.9334  139.9872  160.3114 N.am    1  UNL1       -0.2763
      4 C         139.5899  141.3206  160.1088 C.3     1  UNL1        0.0950
      5 C         140.1469  141.3562  158.7165 C.3     1  UNL1        0.0390
      6 C         139.8347  140.0447  158.0587 C.3     1  UNL1        0.0758
      7 C         139.0847  139.1987  159.0444 C.3     1  UNL1        0.1091
      8 C         138.1730  140.4276  162.7564 C.3     1  UNL1        0.1596
      9 O         137.0132  140.9512  161.9623 O.3     1  UNL1       -0.3780
     10 C         139.3583  139.5901  163.1357 C.3     1  UNL1        0.0573
     11 C         140.0675  139.8384  164.4339 C.3     1  UNL1        0.0951
     12 N         139.5915  140.9242  165.3529 N.pl3   1  UNL1       -0.2931
     13 C         138.4063  141.7617  164.9736 C.3     1  UNL1        0.0951
     14 C         137.6970  141.5134  163.6754 C.3     1  UNL1        0.0573
     15 H         136.9332  140.4481  161.1368 H       1  UNL1        0.2109
     16 C         140.3007  141.1726  166.6510 C.ar    1  UNL1        0.1316
     17 C         140.9286  140.0302  167.3932 C.ar    1  UNL1        0.0382
     18 C         141.6378  140.2785  168.6914 C.ar    1  UNL1        0.0757
     19 C         141.7192  141.6692  169.2475 C.ar    1  UNL1        0.0246
     20 C         141.0914  142.8116  168.5054 C.ar    1  UNL1        0.1002
     21 N         140.3821  142.5633  167.2071 N.ar    1  UNL1       -0.2292
     22 C         142.2656  139.1361  169.4336 C.3     1  UNL1        0.4187
     23 F         142.8935  137.9937  170.1756 F       1  UNL1       -0.1659
     24 F         142.9753  138.7129  168.1817 F       1  UNL1       -0.1659
     25 F         141.5559  139.5594  170.6855 F       1  UNL1       -0.1659
     26 N         140.2070  139.6489  156.6606 N.3     1  UNL1       -0.2982
     27 H         140.5146  140.4978  156.1863 H       1  UNL1        0.1232
     28 C         141.2700  138.6155  156.4316 C.3     1  UNL1        0.0542
     29 C         142.6028  139.0210  155.8757 C.3     1  UNL1        0.0185
     30 C         143.6657  137.9877  155.6467 C.3     1  UNL1        0.0340
     31 C         143.3957  136.5489  155.9737 C.3     1  UNL1        0.1231
     32 O         144.8048  136.4418  155.4706 O.3     1  UNL1       -0.3812
     33 C         142.0629  136.1434  156.5296 C.3     1  UNL1        0.0340
     34 C         141.0000  137.1767  156.7586 C.3     1  UNL1        0.0185
     35 H         145.1241  137.3209  155.2138 H       1  UNL1        0.2107
     36 C         143.6152  135.0728  156.1259 C.ar    1  UNL1        0.0830
     37 C         143.3838  134.1561  154.9615 C.ar    1  UNL1        0.0172
     38 C         143.6033  132.6800  155.1138 C.ar    1  UNL1        0.0059
     39 C         144.0543  132.1208  156.4306 C.ar    1  UNL1        0.0549
     40 C         144.2857  133.0376  157.5950 C.ar    1  UNL1        0.1015
     41 N         144.0662  134.5136  157.4427 N.ar    1  UNL1       -0.2458
     42 C         144.2738  130.6447  156.5828 C.ar    1  UNL1        0.1638
     43 N         144.0911  129.9935  157.9217 N.ar    1  UNL1       -0.2250
     44 C         144.3106  128.5174  158.0738 C.ar    1  UNL1        0.1022
     45 C         144.7128  127.6928  156.8872 C.ar    1  UNL1        0.0414
     46 C         144.8954  128.3440  155.5484 C.ar    1  UNL1        0.1022
     47 N         144.6759  129.8200  155.3962 N.ar    1  UNL1       -0.2250
@<TRIPOS>BOND
     1     1     2    2
     2     2     3   am
     3     3     4    1
     4     4     5    1
     5     5     6    1
     6     6    26    1
     7    28    26    1
     8    28    29    1
     9    29    30    1
    10    30    31    1
    11    31    32    1
    12    31    36    1
    13    36    37   ar
    14    37    38   ar
    15    38    39   ar
    16    39    42    1
    17    42    43   ar
    18    43    44   ar
    19    44    45   ar
    20    45    46   ar
    21    46    47   ar
    22    39    40   ar
    23    40    41   ar
    24    31    33    1
    25    33    34    1
    26     6     7    1
    27     2     8    1
    28     8     9    1
    29     8    10    1
    30    10    11    1
    31    11    12    1
    32    12    16    1
    33    16    17   ar
    34    17    18   ar
    35    18    22    1
    36    22    23    1
    37    22    24    1
    38    22    25    1
    39    18    19   ar
    40    19    20   ar
    41    20    21   ar
    42    12    13    1
    43    13    14    1
    44     7     3    1
    45    14     8    1
    46    34    28    1
    47    21    16   ar
    48    41    36   ar
    49    47    42   ar
    50    26    27    1
    51    32    35    1
    52     9    15    1
@<TRIPOS>MOLECULE
*****
 47 52 0 0 0
SMALL
GASTEIGER

@<TRIPOS>ATOM
      1 O         141.1995  137.2463  161.9941 O.2     1  UNL1       -0.2724
      2 C         139.9484  138.0243  162.2759 C.2     1  UNL1        0.2499
      3 N         139.2546  138.7568  161.1659 N.am    1  UNL1       -0.2763
      4 C         138.0021  139.5720  161.2953 C.3     1  UNL1        0.0950
      5 C         137.6649  140.1216  159.9410 C.3     1  UNL1        0.0390
      6 C         138.7090  139.6462  158.9746 C.3     1  UNL1        0.0758
      7 C         139.6915  138.8026  159.7317 C.3     1  UNL1        0.1091
      8 C         139.3912  138.0698  163.6678 C.3     1  UNL1        0.1596
      9 O         138.3790  137.1786  163.0110 O.3     1  UNL1       -0.3780
     10 C         140.5969  138.9452  163.8413 C.3     1  UNL1        0.0573
     11 C         140.8937  139.5565  165.1784 C.3     1  UNL1        0.0951
     12 N         139.9849  139.2925  166.3423 N.pl3   1  UNL1       -0.2931
     13 C         138.7792  138.4172  166.1688 C.3     1  UNL1        0.0951
     14 C         138.4823  137.8058  164.8316 C.3     1  UNL1        0.0573
     15 H         138.6146  137.0542  162.0783 H       1  UNL1        0.2109
     16 C         140.2818  139.9038  167.6794 C.ar    1  UNL1        0.1316
     17 C         141.6201  140.5304  167.9373 C.ar    1  UNL1        0.0382
     18 C         141.9169  141.1417  169.2745 C.ar    1  UNL1        0.0757
     19 C         140.8755  141.1265  170.3539 C.ar    1  UNL1        0.0246
     20 C         139.5372  140.5000  170.0961 C.ar    1  UNL1        0.1002
     21 N         139.2403  139.8887  168.7589 N.ar    1  UNL1       -0.2292
     22 C         143.2552  141.7682  169.5323 C.3     1  UNL1        0.4187
     23 F         144.5935  142.3947  169.7902 F       1  UNL1       -0.1659
     24 F         143.6158  140.6260  170.4352 F       1  UNL1       -0.1659
     25 F         142.8945  142.9104  168.6293 F       1  UNL1       -0.1659
     26 N         138.7614  139.9592  157.5086 N.3     1  UNL1       -0.2982
     27 H         137.7961  140.0020  157.1820 H       1  UNL1        0.1232
     28 C         139.4354  141.2120  157.0328 C.3     1  UNL1        0.0542
     29 C         140.9245  141.2414  156.8552 C.3     1  UNL1        0.0185
     30 C         141.5985  142.4941  156.3794 C.3     1  UNL1        0.0340
     31 C         140.7833  143.7175  156.0813 C.3     1  UNL1        0.1231
     32 O         142.1548  144.2340  155.7616 O.3     1  UNL1       -0.3812
     33 C         139.2942  143.6881  156.2590 C.3     1  UNL1        0.0340
     34 C         138.6203  142.4354  156.7348 C.3     1  UNL1        0.0185
     35 H         142.8076  143.5324  155.9115 H       1  UNL1        0.2107
     36 C         140.4445  145.1203  155.6722 C.ar    1  UNL1        0.0830
     37 C         139.6420  145.9957  156.5884 C.ar    1  UNL1        0.0172
     38 C         139.3033  147.3986  156.1792 C.ar    1  UNL1        0.0059
     39 C         139.7671  147.9258  154.8538 C.ar    1  UNL1        0.0549
     40 C         140.5696  147.0504  153.9375 C.ar    1  UNL1        0.1015
     41 N         140.9084  145.6476  154.3467 N.ar    1  UNL1       -0.2458
     42 C         139.4283  149.3287  154.4446 C.ar    1  UNL1        0.1638
     43 N         138.8882  150.2953  155.4564 N.ar    1  UNL1       -0.2250
     44 C         138.5494  151.6982  155.0471 C.ar    1  UNL1        0.1022
     45 C         138.7508  152.1342  153.6262 C.ar    1  UNL1        0.0414
     46 C         139.2909  151.1675  152.6143 C.ar    1  UNL1        0.1022
     47 N         139.6297  149.7647  153.0236 N.ar    1  UNL1       -0.2250
@<TRIPOS>BOND
     1     1     2    2
     2     2     3   am
     3     3     4    1
     4     4     5    1
     5     5     6    1
     6     6    26    1
     7    28    26    1
     8    28    29    1
     9    29    30    1
    10    30    31    1
    11    31    32    1
    12    31    36    1
    13    36    37   ar
    14    37    38   ar
    15    38    39   ar
    16    39    42    1
    17    42    43   ar
    18    43    44   ar
    19    44    45   ar
    20    45    46   ar
    21    46    47   ar
    22    39    40   ar
    23    40    41   ar
    24    31    33    1
    25    33    34    1
    26     6     7    1
    27     2     8    1
    28     8     9    1
    29     8    10    1
    30    10    11    1
    31    11    12    1
    32    12    16    1
    33    16    17   ar
    34    17    18   ar
    35    18    22    1
    36    22    23    1
    37    22    24    1
    38    22    25    1
    39    18    19   ar
    40    19    20   ar
    41    20    21   ar
    42    12    13    1
    43    13    14    1
    44     7     3    1
    45    14     8    1
    46    34    28    1
    47    21    16   ar
    48    41    36   ar
    49    47    42   ar
    50    26    27    1
    51    32    35    1
    52     9    15    1
@<TRIPOS>MOLECULE
*****
 47 52 0 0 0
SMALL
GASTEIGER

@<TRIPOS>ATOM
      1 O         145.2226  137.8433  155.3442 O.2     1  UNL1       -0.2724
      2 C         143.7606  137.5388  155.4847 C.2     1  UNL1        0.2499
      3 N         142.8603  138.4988  156.2044 N.am    1  UNL1       -0.2763
      4 C         141.3858  138.3302  156.4226 C.3     1  UNL1        0.0950
      5 C         140.8907  139.5232  157.1853 C.3     1  UNL1        0.0390
      6 C         142.0592  140.4290  157.4386 C.3     1  UNL1        0.0758
      7 C         143.2764  139.7960  156.8323 C.3     1  UNL1        0.1091
      8 C         143.1988  136.2743  154.9056 C.3     1  UNL1        0.1596
      9 O         142.8212  137.2453  153.8264 O.3     1  UNL1       -0.3780
     10 C         143.7715  135.7424  156.1859 C.3     1  UNL1        0.0573
     11 C         143.6512  134.2833  156.5121 C.3     1  UNL1        0.0951
     12 N         142.9583  133.3560  155.5582 N.pl3   1  UNL1       -0.2931
     13 C         142.3857  133.8879  154.2779 C.3     1  UNL1        0.0951
     14 C         142.5059  135.3471  153.9516 C.3     1  UNL1        0.0573
     15 H         143.1282  138.1331  154.0683 H       1  UNL1        0.2109
     16 C         142.8381  131.8969  155.8845 C.ar    1  UNL1        0.1316
     17 C         143.4956  131.3469  157.1154 C.ar    1  UNL1        0.0382
     18 C         143.3754  129.8878  157.4417 C.ar    1  UNL1        0.0757
     19 C         142.5976  128.9786  156.5370 C.ar    1  UNL1        0.0246
     20 C         141.9400  129.5285  155.3061 C.ar    1  UNL1        0.1002
     21 N         142.0603  130.9877  154.9798 N.ar    1  UNL1       -0.2292
     22 C         144.0329  129.3378  158.6726 C.3     1  UNL1        0.4187
     23 F         144.6904  128.7878  159.9035 F       1  UNL1       -0.1659
     24 F         142.8613  128.4271  158.8914 F       1  UNL1       -0.1659
     25 F         145.2045  130.2486  158.4537 F       1  UNL1       -0.1659
     26 N         142.0177  141.7381  158.1696 N.3     1  UNL1       -0.2982
     27 H         141.0334  141.9730  158.2973 H       1  UNL1        0.1232
     28 C         142.6716  141.8678  159.5134 C.3     1  UNL1        0.0542
     29 C         144.0747  142.3877  159.6177 C.3     1  UNL1        0.0185
     30 C         144.7286  142.5174  160.9614 C.3     1  UNL1        0.0340
     31 C         143.9793  142.1271  162.2008 C.3     1  UNL1        0.1231
     32 O         145.2790  142.5642  162.8089 O.3     1  UNL1       -0.3812
     33 C         142.5762  141.6072  162.0966 C.3     1  UNL1        0.0340
     34 C         141.9224  141.4775  160.7529 C.3     1  UNL1        0.0185
     35 H         145.8833  142.8530  162.1072 H       1  UNL1        0.2107
     36 C         143.6815  141.8887  163.6515 C.ar    1  UNL1        0.0830
     37 C         143.9089  142.9816  164.6534 C.ar    1  UNL1        0.0172
     38 C         143.6110  142.7430  166.1041 C.ar    1  UNL1        0.0059
     39 C         143.0858  141.4116  166.5528 C.ar    1  UNL1        0.0549
     40 C         142.8584  140.3187  165.5509 C.ar    1  UNL1        0.1015
     41 N         143.1562  140.5572  164.1003 N.ar    1  UNL1       -0.2458
     42 C         142.7879  141.1731  168.0036 C.ar    1  UNL1        0.1638
     43 N         142.4817  142.3311  168.9065 N.ar    1  UNL1       -0.2250
     44 C         142.1838  142.0925  170.3572 C.ar    1  UNL1        0.1022
     45 C         142.1923  140.6961  170.9048 C.ar    1  UNL1        0.0414
     46 C         142.4986  139.5382  170.0018 C.ar    1  UNL1        0.1022
     47 N         142.7964  139.7767  168.5512 N.ar    1  UNL1       -0.2250
@<TRIPOS>BOND
     1     1     2    2
     2     2     3   am
     3     3     4    1
     4     4     5    1
     5     5     6    1
     6     6    26    1
     7    28    26    1
     8    28    29    1
     9    29    30    1
    10    30    31    1
    11    31    32    1
    12    31    36    1
    13    36    37   ar
    14    37    38   ar
    15    38    39   ar
    16    39    42    1
    17    42    43   ar
    18    43    44   ar
    19    44    45   ar
    20    45    46   ar
    21    46    47   ar
    22    39    40   ar
    23    40    41   ar
    24    31    33    1
    25    33    34    1
    26     6     7    1
    27     2     8    1
    28     8     9    1
    29     8    10    1
    30    10    11    1
    31    11    12    1
    32    12    16    1
    33    16    17   ar
    34    17    18   ar
    35    18    22    1
    36    22    23    1
    37    22    24    1
    38    22    25    1
    39    18    19   ar
    40    19    20   ar
    41    20    21   ar
    42    12    13    1
    43    13    14    1
    44     7     3    1
    45    14     8    1
    46    34    28    1
    47    21    16   ar
    48    41    36   ar
    49    47    42   ar
    50    26    27    1
    51    32    35    1
    52     9    15    1
@<TRIPOS>MOLECULE
*****
 47 52 0 0 0
SMALL
GASTEIGER

@<TRIPOS>ATOM
      1 O         143.8533  144.3932  161.7213 O.2     1  UNL1       -0.2724
      2 C         142.3922  144.0973  161.5552 C.2     1  UNL1        0.2499
      3 N         141.8502  143.7292  160.2059 N.am    1  UNL1       -0.2763
      4 C         140.4198  143.4083  159.8879 C.3     1  UNL1        0.0950
      5 C         140.3290  143.0981  158.4232 C.3     1  UNL1        0.0390
      6 C         141.7032  143.2272  157.8359 C.3     1  UNL1        0.0758
      7 C         142.6434  143.6172  158.9377 C.3     1  UNL1        0.1091
      8 C         141.4732  144.1696  162.7385 C.3     1  UNL1        0.1596
      9 O         141.2568  145.5352  162.1568 O.3     1  UNL1       -0.3780
     10 C         142.0087  142.7789  162.9092 C.3     1  UNL1        0.0573
     11 C         141.5500  141.9348  164.0612 C.3     1  UNL1        0.0951
     12 N         140.5558  142.4814  165.0424 N.pl3   1  UNL1       -0.2931
     13 C         140.0203  143.8721  164.8717 C.3     1  UNL1        0.0951
     14 C         140.4790  144.7162  163.7197 C.3     1  UNL1        0.0573
     15 H         141.8024  145.6381  161.3614 H       1  UNL1        0.2109
     16 C         140.0971  141.6373  166.1944 C.ar    1  UNL1        0.1316
     17 C         139.3155  140.3824  165.9404 C.ar    1  UNL1        0.0382
     18 C         138.8568  139.5383  167.0923 C.ar    1  UNL1        0.0757
     19 C         139.1797  139.9490  168.4984 C.ar    1  UNL1        0.0246
     20 C         139.9612  141.2039  168.7525 C.ar    1  UNL1        0.1002
     21 N         140.4199  142.0480  167.6005 N.ar    1  UNL1       -0.2292
     22 C         138.0753  138.2834  166.8383 C.3     1  UNL1        0.4187
     23 F         137.2938  137.0285  166.5841 F       1  UNL1       -0.1659
     24 F         138.9706  137.9607  165.6788 F       1  UNL1       -0.1659
     25 F         137.1801  138.6062  167.9978 F       1  UNL1       -0.1659
     26 N         142.0725  143.0052  156.3991 N.3     1  UNL1       -0.2982
     27 H         142.7688  143.7117  156.1616 H       1  UNL1        0.1232
     28 C         142.6313  141.6829  155.9640 C.3     1  UNL1        0.0542
     29 C         143.9618  141.6214  155.2742 C.3     1  UNL1        0.0185
     30 C         144.5206  140.2991  154.8391 C.3     1  UNL1        0.0340
     31 C         143.7488  139.0384  155.0938 C.3     1  UNL1        0.1231
     32 O         144.9570  138.4705  154.4100 O.3     1  UNL1       -0.3812
     33 C         142.4182  139.0999  155.7836 C.3     1  UNL1        0.0340
     34 C         141.8595  140.4222  156.2187 C.3     1  UNL1        0.0185
     35 H         145.5654  139.1897  154.1784 H       1  UNL1        0.2107
     36 C         143.3967  137.5804  155.1109 C.ar    1  UNL1        0.0830
     37 C         142.3366  137.0539  154.1895 C.ar    1  UNL1        0.0172
     38 C         141.9846  135.5958  154.2067 C.ar    1  UNL1        0.0059
     39 C         142.6926  134.6644  155.1454 C.ar    1  UNL1        0.0549
     40 C         143.7526  135.1909  156.0668 C.ar    1  UNL1        0.1015
     41 N         144.1046  136.6489  156.0496 N.ar    1  UNL1       -0.2458
     42 C         142.3405  133.2063  155.1625 C.ar    1  UNL1        0.1638
     43 N         141.2750  132.6813  154.2465 N.ar    1  UNL1       -0.2250
     44 C         140.9230  131.2232  154.2638 C.ar    1  UNL1        0.1022
     45 C         141.6364  130.2904  155.1969 C.ar    1  UNL1        0.0414
     46 C         142.7018  130.8155  156.1129 C.ar    1  UNL1        0.1022
     47 N         143.0539  132.2735  156.0957 N.ar    1  UNL1       -0.2250
@<TRIPOS>BOND
     1     1     2    2
     2     2     3   am
     3     3     4    1
     4     4     5    1
     5     5     6    1
     6     6    26    1
     7    28    26    1
     8    28    29    1
     9    29    30    1
    10    30    31    1
    11    31    32    1
    12    31    36    1
    13    36    37   ar
    14    37    38   ar
    15    38    39   ar
    16    39    42    1
    17    42    43   ar
    18    43    44   ar
    19    44    45   ar
    20    45    46   ar
    21    46    47   ar
    22    39    40   ar
    23    40    41   ar
    24    31    33    1
    25    33    34    1
    26     6     7    1
    27     2     8    1
    28     8     9    1
    29     8    10    1
    30    10    11    1
    31    11    12    1
    32    12    16    1
    33    16    17   ar
    34    17    18   ar
    35    18    22    1
    36    22    23    1
    37    22    24    1
    38    22    25    1
    39    18    19   ar
    40    19    20   ar
    41    20    21   ar
    42    12    13    1
    43    13    14    1
    44     7     3    1
    45    14     8    1
    46    34    28    1
    47    21    16   ar
    48    41    36   ar
    49    47    42   ar
    50    26    27    1
    51    32    35    1
    52     9    15    1
@<TRIPOS>MOLECULE
*****
 47 52 0 0 0
SMALL
GASTEIGER

@<TRIPOS>ATOM
      1 O         141.4017  137.2224  162.0979 O.2     1  UNL1       -0.2724
      2 C         140.1691  138.0525  162.3014 C.2     1  UNL1        0.2499
      3 N         139.5940  138.8343  161.1577 N.am    1  UNL1       -0.2763
      4 C         138.3731  139.7041  161.2098 C.3     1  UNL1        0.0950
      5 C         138.1634  140.2909  159.8454 C.3     1  UNL1        0.0390
      6 C         139.2548  139.7837  158.9500 C.3     1  UNL1        0.0758
      7 C         140.1389  138.8835  159.7610 C.3     1  UNL1        0.1091
      8 C         139.5115  138.1008  163.6487 C.3     1  UNL1        0.1596
      9 O         138.5685  137.1809  162.9314 O.3     1  UNL1       -0.3780
     10 C         140.6829  139.0039  163.8981 C.3     1  UNL1        0.0573
     11 C         140.8691  139.6359  165.2457 C.3     1  UNL1        0.0951
     12 N         139.8840  139.3647  166.3439 N.pl3   1  UNL1       -0.2931
     13 C         138.7126  138.4615  166.0945 C.3     1  UNL1        0.0951
     14 C         138.5264  137.8296  164.7469 C.3     1  UNL1        0.0573
     15 H         138.8737  137.0516  162.0198 H       1  UNL1        0.2109
     16 C         140.0703  139.9966  167.6914 C.ar    1  UNL1        0.1316
     17 C         141.3392  140.7320  168.0061 C.ar    1  UNL1        0.0382
     18 C         141.5255  141.3639  169.3536 C.ar    1  UNL1        0.0757
     19 C         140.4428  141.2605  170.3866 C.ar    1  UNL1        0.0246
     20 C         139.1738  140.5252  170.0720 C.ar    1  UNL1        0.1002
     21 N         138.9875  139.8932  168.7244 N.ar    1  UNL1       -0.2292
     22 C         142.7944  142.0993  169.6683 C.3     1  UNL1        0.4187
     23 F         144.0633  142.8347  169.9830 F       1  UNL1       -0.1659
     24 F         142.0390  143.3950  169.6865 F       1  UNL1       -0.1659
     25 F         143.5499  140.8035  169.6501 F       1  UNL1       -0.1659
     26 N         139.4311  140.1181  157.4984 N.3     1  UNL1       -0.2982
     27 H         138.5576  140.5420  157.1857 H       1  UNL1        0.1232
     28 C         140.5363  141.0369  157.0692 C.3     1  UNL1        0.0542
     29 C         140.3032  142.5178  157.0179 C.3     1  UNL1        0.0185
     30 C         141.4085  143.4366  156.5887 C.3     1  UNL1        0.0340
     31 C         142.7469  142.8745  156.2109 C.3     1  UNL1        0.1231
     32 O         143.0103  144.3365  156.0033 O.3     1  UNL1       -0.3812
     33 C         142.9800  141.3936  156.2622 C.3     1  UNL1        0.0340
     34 C         141.8748  140.4749  156.6914 C.3     1  UNL1        0.0185
     35 H         142.2102  144.8424  156.2148 H       1  UNL1        0.2107
     36 C         144.1767  142.8202  155.7610 C.ar    1  UNL1        0.0830
     37 C         145.2046  142.1325  156.6098 C.ar    1  UNL1        0.0172
     38 C         146.6345  142.0783  156.1597 C.ar    1  UNL1        0.0059
     39 C         147.0365  142.7119  154.8609 C.ar    1  UNL1        0.0549
     40 C         146.0087  143.3996  154.0121 C.ar    1  UNL1        0.1015
     41 N         144.5788  143.4538  154.4621 N.ar    1  UNL1       -0.2458
     42 C         148.4665  142.6576  154.4110 C.ar    1  UNL1        0.1638
     43 N         148.9248  143.5095  153.2646 N.ar    1  UNL1       -0.2250
     44 C         150.3547  143.4552  152.8147 C.ar    1  UNL1        0.1022
     45 C         151.3262  142.5491  153.5112 C.ar    1  UNL1        0.0414
     46 C         150.8679  141.6972  154.6576 C.ar    1  UNL1        0.1022
     47 N         149.4379  141.7515  155.1075 N.ar    1  UNL1       -0.2250
@<TRIPOS>BOND
     1     1     2    2
     2     2     3   am
     3     3     4    1
     4     4     5    1
     5     5     6    1
     6     6    26    1
     7    28    26    1
     8    28    29    1
     9    29    30    1
    10    30    31    1
    11    31    32    1
    12    31    36    1
    13    36    37   ar
    14    37    38   ar
    15    38    39   ar
    16    39    42    1
    17    42    43   ar
    18    43    44   ar
    19    44    45   ar
    20    45    46   ar
    21    46    47   ar
    22    39    40   ar
    23    40    41   ar
    24    31    33    1
    25    33    34    1
    26     6     7    1
    27     2     8    1
    28     8     9    1
    29     8    10    1
    30    10    11    1
    31    11    12    1
    32    12    16    1
    33    16    17   ar
    34    17    18   ar
    35    18    22    1
    36    22    23    1
    37    22    24    1
    38    22    25    1
    39    18    19   ar
    40    19    20   ar
    41    20    21   ar
    42    12    13    1
    43    13    14    1
    44     7     3    1
    45    14     8    1
    46    34    28    1
    47    21    16   ar
    48    41    36   ar
    49    47    42   ar
    50    26    27    1
    51    32    35    1
    52     9    15    1
