@<TRIPOS>MOLECULE
*****
 29 34 0 0 0
SMALL
GASTEIGER

@<TRIPOS>ATOM
      1 O         143.5452  142.3558  166.7547 O.2     1  UNL1       -0.2443
      2 C         143.4917  141.8914  165.3294 C.ar    1  UNL1        0.3532
      3 N         143.2401  140.4452  165.0208 N.ar    1  UNL1       -0.2702
      4 C         143.1866  139.9808  163.5956 C.ar    1  UNL1        0.0965
      5 S         142.9578  138.6282  162.9885 S.2     1  UNL1       -0.0728
      6 C         143.0145  138.7741  161.4968 C.ar    1  UNL1        0.0210
      7 C         143.2784  140.2167  161.1817 C.ar    1  UNL1       -0.0126
      8 C         143.3848  140.9625  162.4788 C.ar    1  UNL1        0.0545
      9 C         143.6364  142.4087  162.7874 C.ar    1  UNL1        0.1717
     10 N         143.8669  143.5982  161.9033 N.ar    1  UNL1       -0.2032
     11 C         144.0628  144.7979  162.7821 C.ar    1  UNL1        0.2214
     12 N         143.9534  144.3498  164.2095 N.ar    1  UNL1       -0.1372
     13 N         143.6899  142.8731  164.2127 N.ar    1  UNL1       -0.1606
     14 C         143.3878  140.6649  159.7544 C.3     1  UNL1        0.0441
     15 C         143.2333  139.6704  158.6421 C.3     1  UNL1        0.0771
     16 N         142.9694  138.2278  158.9572 N.3     1  UNL1       -0.2682
     17 C         142.8600  137.7796  160.3844 C.3     1  UNL1        0.1054
     18 C         143.0419  139.4635  166.1375 C.3     1  UNL1        0.1378
     19 C         141.9200  139.6555  167.1145 C.ar    1  UNL1        0.0006
     20 C         140.5138  139.8199  166.6191 C.ar    1  UNL1       -0.0015
     21 C         139.3919  140.0119  167.5961 C.ar    1  UNL1        0.0111
     22 C         139.6764  140.0395  169.0687 C.ar    1  UNL1        0.0577
     23 CL        138.5545  140.2315  170.0457 Cl      1  UNL1       -0.0822
     24 C         141.0825  139.8752  169.5642 C.ar    1  UNL1        0.0111
     25 C         142.2044  139.6831  168.5871 C.ar    1  UNL1       -0.0015
     26 C         142.8149  137.2334  157.8448 C.3     1  UNL1        0.0724
     27 C         141.5640  137.2221  157.0172 C.3     1  UNL1        0.0160
     28 C         140.8548  136.8840  155.7394 C.3     1  UNL1        0.0014
     29 C         140.1065  137.5405  156.8615 C.3     1  UNL1        0.0014
@<TRIPOS>BOND
     1     1     2    2
     2     2     3   ar
     3     3    18    1
     4    18    19    1
     5    19    20   ar
     6    20    21   ar
     7    21    22   ar
     8    22    23    1
     9    22    24   ar
    10    24    25   ar
    11     3     4   ar
    12     4     5   ar
    13     5     6   ar
    14     6     7   ar
    15     7     8   ar
    16     8     9   ar
    17     9    10   ar
    18    10    11   ar
    19    11    12   ar
    20    12    13   ar
    21     7    14    1
    22    14    15    1
    23    15    16    1
    24    16    26    1
    25    26    27    1
    26    27    28    1
    27    28    29    1
    28    16    17    1
    29    13     2   ar
    30    29    27    1
    31    25    19   ar
    32     8     4   ar
    33    13     9   ar
    34    17     6    1
@<TRIPOS>MOLECULE
*****
 29 34 0 0 0
SMALL
GASTEIGER

@<TRIPOS>ATOM
      1 O         138.8521  140.1341  166.1601 O.2     1  UNL1       -0.2443
      2 C         139.0974  140.7072  164.7957 C.ar    1  UNL1        0.3532
      3 N         139.4466  142.1579  164.6433 N.ar    1  UNL1       -0.2702
      4 C         139.6919  142.7310  163.2790 C.ar    1  UNL1        0.0965
      5 S         140.0504  144.1136  162.8206 S.2     1  UNL1       -0.0728
      6 C         140.1681  144.0903  161.3255 C.ar    1  UNL1        0.0210
      7 C         139.8822  142.6934  160.8597 C.ar    1  UNL1       -0.0126
      8 C         139.5879  141.8533  162.0670 C.ar    1  UNL1        0.0545
      9 C         139.2387  140.4025  162.2194 C.ar    1  UNL1        0.1717
     10 N         139.0657  139.3010  161.2160 N.ar    1  UNL1       -0.2032
     11 C         138.7135  138.0472  161.9602 C.ar    1  UNL1        0.2214
     12 N         138.6688  138.3738  163.4236 N.ar    1  UNL1       -0.1372
     13 N         138.9935  139.8294  163.5838 N.ar    1  UNL1       -0.1606
     14 C         139.9269  142.3668  159.3963 C.3     1  UNL1        0.0441
     15 C         140.2574  143.4372  158.3988 C.3     1  UNL1        0.0771
     16 N         140.5432  144.8341  158.8646 N.3     1  UNL1       -0.2682
     17 C         140.4986  145.1607  160.3279 C.3     1  UNL1        0.1054
     18 C         139.5505  143.0357  165.8553 C.3     1  UNL1        0.1378
     19 C         140.6604  142.8236  166.8418 C.ar    1  UNL1        0.0006
     20 C         140.4106  143.0265  168.3069 C.ar    1  UNL1       -0.0015
     21 C         141.5205  142.8145  169.2935 C.ar    1  UNL1        0.0111
     22 C         142.8802  142.3995  168.8148 C.ar    1  UNL1        0.0577
     23 CL        143.9900  142.1874  169.8014 Cl      1  UNL1       -0.0822
     24 C         143.1300  142.1965  167.3499 C.ar    1  UNL1        0.0111
     25 C         142.0201  142.4086  166.3633 C.ar    1  UNL1       -0.0015
     26 C         140.8737  145.9044  157.8669 C.3     1  UNL1        0.0724
     27 C         139.8750  146.2818  156.8133 C.3     1  UNL1        0.0160
     28 C         138.9265  145.8853  155.7209 C.3     1  UNL1        0.0014
     29 C         139.0938  147.3319  156.0807 C.3     1  UNL1        0.0014
@<TRIPOS>BOND
     1     1     2    2
     2     2     3   ar
     3     3    18    1
     4    18    19    1
     5    19    20   ar
     6    20    21   ar
     7    21    22   ar
     8    22    23    1
     9    22    24   ar
    10    24    25   ar
    11     3     4   ar
    12     4     5   ar
    13     5     6   ar
    14     6     7   ar
    15     7     8   ar
    16     8     9   ar
    17     9    10   ar
    18    10    11   ar
    19    11    12   ar
    20    12    13   ar
    21     7    14    1
    22    14    15    1
    23    15    16    1
    24    16    26    1
    25    26    27    1
    26    27    28    1
    27    28    29    1
    28    16    17    1
    29    13     2   ar
    30    29    27    1
    31    25    19   ar
    32     8     4   ar
    33    13     9   ar
    34    17     6    1
@<TRIPOS>MOLECULE
*****
 29 34 0 0 0
SMALL
GASTEIGER

@<TRIPOS>ATOM
      1 O         138.9059  139.8923  169.6747 O.2     1  UNL1       -0.2443
      2 C         139.9602  140.4540  168.7676 C.ar    1  UNL1        0.3532
      3 N         139.9558  140.1081  167.3081 N.ar    1  UNL1       -0.2702
      4 C         141.0101  140.6697  166.4010 C.ar    1  UNL1        0.0965
      5 S         141.2595  140.5077  164.9307 S.2     1  UNL1       -0.0728
      6 C         142.4723  141.3152  164.5745 C.ar    1  UNL1        0.0210
      7 C         142.9726  141.9763  165.8247 C.ar    1  UNL1       -0.0126
      8 C         142.0690  141.5774  166.9535 C.ar    1  UNL1        0.0545
      9 C         142.0734  141.9233  168.4130 C.ar    1  UNL1        0.1717
     10 N         142.9830  142.7852  169.2374 N.ar    1  UNL1       -0.2032
     11 C         142.4908  142.7562  170.6541 C.ar    1  UNL1        0.2214
     12 N         141.2770  141.8764  170.7052 N.ar    1  UNL1       -0.1372
     13 N         141.0190  141.3616  169.3201 N.ar    1  UNL1       -0.1606
     14 C         144.1864  142.8561  165.7735 C.3     1  UNL1        0.0441
     15 C         144.8999  143.0749  164.4724 C.3     1  UNL1        0.0771
     16 N         144.3996  142.4138  163.2223 N.3     1  UNL1       -0.2682
     17 C         143.1859  141.5340  163.2733 C.3     1  UNL1        0.1054
     18 C         138.8970  139.2004  166.7557 C.3     1  UNL1        0.1378
     19 C         138.5731  139.2300  165.2914 C.ar    1  UNL1        0.0006
     20 C         138.8740  138.0377  164.4323 C.ar    1  UNL1       -0.0015
     21 C         138.5501  138.0673  162.9680 C.ar    1  UNL1        0.0111
     22 C         137.9254  139.2894  162.3627 C.ar    1  UNL1        0.0577
     23 CL        137.6015  139.3191  160.8984 Cl      1  UNL1       -0.0822
     24 C         137.6246  140.4817  163.2216 C.ar    1  UNL1        0.0111
     25 C         137.9485  140.4520  164.6860 C.ar    1  UNL1       -0.0015
     26 C         145.1132  142.6326  161.9211 C.3     1  UNL1        0.0724
     27 C         144.3334  142.7139  160.6425 C.3     1  UNL1        0.0160
     28 C         144.2262  142.4605  159.1678 C.3     1  UNL1        0.0014
     29 C         143.0897  143.1080  159.9022 C.3     1  UNL1        0.0014
@<TRIPOS>BOND
     1     1     2    2
     2     2     3   ar
     3     3    18    1
     4    18    19    1
     5    19    20   ar
     6    20    21   ar
     7    21    22   ar
     8    22    23    1
     9    22    24   ar
    10    24    25   ar
    11     3     4   ar
    12     4     5   ar
    13     5     6   ar
    14     6     7   ar
    15     7     8   ar
    16     8     9   ar
    17     9    10   ar
    18    10    11   ar
    19    11    12   ar
    20    12    13   ar
    21     7    14    1
    22    14    15    1
    23    15    16    1
    24    16    26    1
    25    26    27    1
    26    27    28    1
    27    28    29    1
    28    16    17    1
    29    13     2   ar
    30    29    27    1
    31    25    19   ar
    32     8     4   ar
    33    13     9   ar
    34    17     6    1
@<TRIPOS>MOLECULE
*****
 29 34 0 0 0
SMALL
GASTEIGER

@<TRIPOS>ATOM
      1 O         137.6628  143.1787  161.2402 O.2     1  UNL1       -0.2443
      2 C         138.6790  142.4995  160.3707 C.ar    1  UNL1        0.3532
      3 N         138.7083  141.0025  160.2805 N.ar    1  UNL1       -0.2702
      4 C         139.7243  140.3233  159.4110 C.ar    1  UNL1        0.0965
      5 S         139.9935  138.8756  159.1248 S.2     1  UNL1       -0.0728
      6 C         141.1466  138.7986  158.1687 C.ar    1  UNL1        0.0210
      7 C         141.5902  140.1988  157.8638 C.ar    1  UNL1       -0.0126
      8 C         140.7113  141.1411  158.6316 C.ar    1  UNL1        0.0545
      9 C         140.6819  142.6381  158.7218 C.ar    1  UNL1        0.1717
     10 N         141.5217  143.6991  158.0746 N.ar    1  UNL1       -0.2032
     11 C         141.0246  145.0342  158.5442 C.ar    1  UNL1        0.2214
     12 N         139.8776  144.7982  159.4816 N.ar    1  UNL1       -0.1372
     13 N         139.6658  143.3173  159.5913 N.ar    1  UNL1       -0.1606
     14 C         142.7372  140.4348  156.9264 C.3     1  UNL1        0.0441
     15 C         143.4406  139.2707  156.2939 C.3     1  UNL1        0.0771
     16 N         142.9970  137.8706  156.5988 N.3     1  UNL1       -0.2682
     17 C         141.8501  137.6345  157.5361 C.3     1  UNL1        0.1054
     18 C         137.7214  140.1848  161.0599 C.3     1  UNL1        0.1378
     19 C         138.0009  139.8366  162.4919 C.ar    1  UNL1        0.0006
     20 C         137.7758  140.8557  163.5693 C.ar    1  UNL1       -0.0015
     21 C         138.0553  140.5076  165.0013 C.ar    1  UNL1        0.0111
     22 C         138.5601  139.1402  165.3559 C.ar    1  UNL1        0.0577
     23 CL        138.8396  138.7921  166.7879 Cl      1  UNL1       -0.0822
     24 C         138.7852  138.1212  164.2786 C.ar    1  UNL1        0.0111
     25 C         138.5056  138.4694  162.8466 C.ar    1  UNL1       -0.0015
     26 C         143.7005  136.7065  155.9662 C.3     1  UNL1        0.0724
     27 C         143.3574  135.3068  156.3819 C.3     1  UNL1        0.0160
     28 C         142.5258  134.0693  156.2162 C.3     1  UNL1        0.0014
     29 C         143.5944  134.1197  157.2677 C.3     1  UNL1        0.0014
@<TRIPOS>BOND
     1     1     2    2
     2     2     3   ar
     3     3    18    1
     4    18    19    1
     5    19    20   ar
     6    20    21   ar
     7    21    22   ar
     8    22    23    1
     9    22    24   ar
    10    24    25   ar
    11     3     4   ar
    12     4     5   ar
    13     5     6   ar
    14     6     7   ar
    15     7     8   ar
    16     8     9   ar
    17     9    10   ar
    18    10    11   ar
    19    11    12   ar
    20    12    13   ar
    21     7    14    1
    22    14    15    1
    23    15    16    1
    24    16    26    1
    25    26    27    1
    26    27    28    1
    27    28    29    1
    28    16    17    1
    29    13     2   ar
    30    29    27    1
    31    25    19   ar
    32     8     4   ar
    33    13     9   ar
    34    17     6    1
@<TRIPOS>MOLECULE
*****
 29 34 0 0 0
SMALL
GASTEIGER

@<TRIPOS>ATOM
      1 O         142.7717  143.9801  158.9183 O.2     1  UNL1       -0.2443
      2 C         142.4255  143.6731  160.3452 C.ar    1  UNL1        0.3532
      3 N         143.0868  142.5240  161.0467 N.ar    1  UNL1       -0.2702
      4 C         142.7407  142.2170  162.4735 C.ar    1  UNL1        0.0965
      5 S         143.2250  141.1571  163.4182 S.2     1  UNL1       -0.0728
      6 C         142.5171  141.3442  164.7272 C.ar    1  UNL1        0.0210
      7 C         141.5951  142.5197  164.5917 C.ar    1  UNL1       -0.0126
      8 C         141.7333  143.0591  163.1989 C.ar    1  UNL1        0.0545
      9 C         141.0721  144.2082  162.4973 C.ar    1  UNL1        0.1717
     10 N         140.0489  145.2067  162.9513 N.ar    1  UNL1       -0.2032
     11 C         139.7626  146.1308  161.8050 C.ar    1  UNL1        0.2214
     12 N         140.6089  145.7035  160.6425 N.ar    1  UNL1       -0.1372
     13 N         141.4182  144.5152  161.0704 N.ar    1  UNL1       -0.1606
     14 C         140.7488  142.9471  165.7541 C.3     1  UNL1        0.0441
     15 C         140.8245  142.1989  167.0520 C.3     1  UNL1        0.0771
     16 N         141.7464  141.0235  167.1875 N.3     1  UNL1       -0.2682
     17 C         142.5927  140.5961  166.0252 C.3     1  UNL1        0.1054
     18 C         144.0942  141.6819  160.3214 C.3     1  UNL1        0.1378
     19 C         143.6434  140.4956  159.5216 C.ar    1  UNL1        0.0006
     20 C         143.5145  140.6011  158.0309 C.ar    1  UNL1       -0.0015
     21 C         143.0637  139.4149  157.2311 C.ar    1  UNL1        0.0111
     22 C         142.7418  138.1230  157.9222 C.ar    1  UNL1        0.0577
     23 CL        142.2910  136.9368  157.1225 Cl      1  UNL1       -0.0822
     24 C         142.8706  138.0175  159.4128 C.ar    1  UNL1        0.0111
     25 C         143.3214  139.2038  160.2126 C.ar    1  UNL1       -0.0015
     26 C         141.8220  140.2754  168.4855 C.3     1  UNL1        0.0724
     27 C         140.6348  140.2409  169.4015 C.3     1  UNL1        0.0160
     28 C         140.0632  140.1236  170.7835 C.3     1  UNL1        0.0014
     29 C         139.1500  140.2982  169.6064 C.3     1  UNL1        0.0014
@<TRIPOS>BOND
     1     1     2    2
     2     2     3   ar
     3     3    18    1
     4    18    19    1
     5    19    20   ar
     6    20    21   ar
     7    21    22   ar
     8    22    23    1
     9    22    24   ar
    10    24    25   ar
    11     3     4   ar
    12     4     5   ar
    13     5     6   ar
    14     6     7   ar
    15     7     8   ar
    16     8     9   ar
    17     9    10   ar
    18    10    11   ar
    19    11    12   ar
    20    12    13   ar
    21     7    14    1
    22    14    15    1
    23    15    16    1
    24    16    26    1
    25    26    27    1
    26    27    28    1
    27    28    29    1
    28    16    17    1
    29    13     2   ar
    30    29    27    1
    31    25    19   ar
    32     8     4   ar
    33    13     9   ar
    34    17     6    1
@<TRIPOS>MOLECULE
*****
 29 34 0 0 0
SMALL
GASTEIGER

@<TRIPOS>ATOM
      1 O         140.0141  143.5032  165.3805 O.2     1  UNL1       -0.2443
      2 C         140.6254  143.3681  164.0173 C.ar    1  UNL1        0.3532
      3 N         141.5077  142.1962  163.7039 N.ar    1  UNL1       -0.2702
      4 C         142.1190  142.0611  162.3409 C.ar    1  UNL1        0.0965
      5 S         143.0229  141.0229  161.7445 S.2     1  UNL1       -0.0728
      6 C         143.3106  141.4181  160.3265 C.ar    1  UNL1        0.0210
      7 C         142.5845  142.7005  160.0462 C.ar    1  UNL1       -0.0126
      8 C         141.8481  143.0978  161.2911 C.ar    1  UNL1        0.0545
      9 C         140.9658  144.2697  161.6046 C.ar    1  UNL1        0.1717
     10 N         140.5215  145.4407  160.7791 N.ar    1  UNL1       -0.2032
     11 C         139.6356  146.2995  161.6321 C.ar    1  UNL1        0.2214
     12 N         139.5324  145.6593  162.9847 N.ar    1  UNL1       -0.1372
     13 N         140.3545  144.4048  162.9677 N.ar    1  UNL1       -0.1606
     14 C         142.6877  143.3406  158.6936 C.3     1  UNL1        0.0441
     15 C         143.5170  142.6985  157.6213 C.3     1  UNL1        0.0771
     16 N         144.2430  141.4162  157.9015 N.3     1  UNL1       -0.2682
     17 C         144.1399  140.7760  159.2541 C.3     1  UNL1        0.1054
     18 C         141.7786  141.1594  164.7536 C.3     1  UNL1        0.1378
     19 C         140.6415  140.3941  165.3629 C.ar    1  UNL1        0.0006
     20 C         139.7474  139.5604  164.4936 C.ar    1  UNL1       -0.0015
     21 C         138.6103  138.7951  165.1029 C.ar    1  UNL1        0.0111
     22 C         138.3672  138.8635  166.5815 C.ar    1  UNL1        0.0577
     23 CL        137.2301  138.0982  167.1908 Cl      1  UNL1       -0.0822
     24 C         139.2612  139.6972  167.4508 C.ar    1  UNL1        0.0111
     25 C         140.3984  140.4625  166.8414 C.ar    1  UNL1       -0.0015
     26 C         145.0723  140.7741  156.8291 C.3     1  UNL1        0.0724
     27 C         146.2098  141.5289  156.2077 C.3     1  UNL1        0.0160
     28 C         147.4261  142.3952  156.3507 C.3     1  UNL1        0.0014
     29 C         146.9639  141.9701  154.9884 C.3     1  UNL1        0.0014
@<TRIPOS>BOND
     1     1     2    2
     2     2     3   ar
     3     3    18    1
     4    18    19    1
     5    19    20   ar
     6    20    21   ar
     7    21    22   ar
     8    22    23    1
     9    22    24   ar
    10    24    25   ar
    11     3     4   ar
    12     4     5   ar
    13     5     6   ar
    14     6     7   ar
    15     7     8   ar
    16     8     9   ar
    17     9    10   ar
    18    10    11   ar
    19    11    12   ar
    20    12    13   ar
    21     7    14    1
    22    14    15    1
    23    15    16    1
    24    16    26    1
    25    26    27    1
    26    27    28    1
    27    28    29    1
    28    16    17    1
    29    13     2   ar
    30    29    27    1
    31    25    19   ar
    32     8     4   ar
    33    13     9   ar
    34    17     6    1
@<TRIPOS>MOLECULE
*****
 29 34 0 0 0
SMALL
GASTEIGER

@<TRIPOS>ATOM
      1 O         138.9192  142.4490  158.9959 O.2     1  UNL1       -0.2443
      2 C         139.1537  142.4381  160.4774 C.ar    1  UNL1        0.3532
      3 N         139.0750  141.1487  161.2398 N.ar    1  UNL1       -0.2702
      4 C         139.3095  141.1379  162.7212 C.ar    1  UNL1        0.0965
      5 S         139.2983  140.0287  163.7312 S.2     1  UNL1       -0.0728
      6 C         139.6045  140.6218  165.0744 C.ar    1  UNL1        0.0210
      7 C         139.8050  142.0976  164.8947 C.ar    1  UNL1       -0.0126
      8 C         139.6227  142.4165  163.4405 C.ar    1  UNL1        0.0545
      9 C         139.7013  143.7059  162.6781 C.ar    1  UNL1        0.1717
     10 N         139.9889  145.1126  163.1122 N.ar    1  UNL1       -0.2032
     11 C         139.9322  145.9928  161.8990 C.ar    1  UNL1        0.2214
     12 N         139.6095  145.1301  160.7150 N.ar    1  UNL1       -0.1372
     13 N         139.4668  143.7167  161.1966 N.ar    1  UNL1       -0.1606
     14 C         140.1277  142.9602  166.0787 C.3     1  UNL1        0.0441
     15 C         140.2499  142.3472  167.4422 C.3     1  UNL1        0.0771
     16 N         140.0494  140.8716  167.6219 N.3     1  UNL1       -0.2682
     17 C         139.7267  140.0089  166.4380 C.3     1  UNL1        0.1054
     18 C         138.7619  139.8701  160.5205 C.3     1  UNL1        0.1378
     19 C         139.8049  139.2175  159.6626 C.ar    1  UNL1        0.0006
     20 C         139.5215  138.9428  158.2154 C.ar    1  UNL1       -0.0015
     21 C         140.5645  138.2902  157.3575 C.ar    1  UNL1        0.0111
     22 C         141.8911  137.9121  157.9468 C.ar    1  UNL1        0.0577
     23 CL        142.9342  137.2594  157.0889 Cl      1  UNL1       -0.0822
     24 C         142.1746  138.1866  159.3939 C.ar    1  UNL1        0.0111
     25 C         141.1315  138.8394  160.2518 C.ar    1  UNL1       -0.0015
     26 C         140.1716  140.2586  168.9855 C.3     1  UNL1        0.0724
     27 C         141.5245  139.9173  169.5358 C.3     1  UNL1        0.0160
     28 C         142.8680  140.3512  170.0428 C.3     1  UNL1        0.0014
     29 C         142.5246  138.8923  169.9822 C.3     1  UNL1        0.0014
@<TRIPOS>BOND
     1     1     2    2
     2     2     3   ar
     3     3    18    1
     4    18    19    1
     5    19    20   ar
     6    20    21   ar
     7    21    22   ar
     8    22    23    1
     9    22    24   ar
    10    24    25   ar
    11     3     4   ar
    12     4     5   ar
    13     5     6   ar
    14     6     7   ar
    15     7     8   ar
    16     8     9   ar
    17     9    10   ar
    18    10    11   ar
    19    11    12   ar
    20    12    13   ar
    21     7    14    1
    22    14    15    1
    23    15    16    1
    24    16    26    1
    25    26    27    1
    26    27    28    1
    27    28    29    1
    28    16    17    1
    29    13     2   ar
    30    29    27    1
    31    25    19   ar
    32     8     4   ar
    33    13     9   ar
    34    17     6    1
@<TRIPOS>MOLECULE
*****
 29 34 0 0 0
SMALL
GASTEIGER

@<TRIPOS>ATOM
      1 O         138.9356  145.0287  164.9292 O.2     1  UNL1       -0.2443
      2 C         139.5017  144.1446  163.8579 C.ar    1  UNL1        0.3532
      3 N         139.8405  142.7161  164.1657 N.ar    1  UNL1       -0.2702
      4 C         140.4065  141.8320  163.0944 C.ar    1  UNL1        0.0965
      5 S         140.8332  140.3939  163.1013 S.2     1  UNL1       -0.0728
      6 C         141.3241  140.0494  161.7265 C.ar    1  UNL1        0.0210
      7 C         141.2008  141.2746  160.8697 C.ar    1  UNL1       -0.0126
      8 C         140.6338  142.3762  161.7151 C.ar    1  UNL1        0.0545
      9 C         140.2950  143.8046  161.4073 C.ar    1  UNL1        0.1717
     10 N         140.4086  144.6146  160.1499 N.ar    1  UNL1       -0.2032
     11 C         139.9128  145.9993  160.4442 C.ar    1  UNL1        0.2214
     12 N         139.4927  146.0452  161.8834 N.ar    1  UNL1       -0.1372
     13 N         139.7289  144.6888  162.4787 N.ar    1  UNL1       -0.1606
     14 C         141.6209  141.2286  159.4305 C.3     1  UNL1        0.0441
     15 C         142.1642  139.9576  158.8479 C.3     1  UNL1        0.0771
     16 N         142.2875  138.7326  159.7047 N.3     1  UNL1       -0.2682
     17 C         141.8674  138.7783  161.1439 C.3     1  UNL1        0.1054
     18 C         139.6132  142.1719  165.5449 C.3     1  UNL1        0.1378
     19 C         140.7063  142.2451  166.5695 C.ar    1  UNL1        0.0006
     20 C         140.3634  142.3641  168.0250 C.ar    1  UNL1       -0.0015
     21 C         141.4564  142.4373  169.0496 C.ar    1  UNL1        0.0111
     22 C         142.8926  142.3915  168.6187 C.ar    1  UNL1        0.0577
     23 CL        143.9856  142.4647  169.6433 Cl      1  UNL1       -0.0822
     24 C         143.2355  142.2725  167.1634 C.ar    1  UNL1        0.0111
     25 C         142.1423  142.1993  166.1387 C.ar    1  UNL1       -0.0015
     26 C         142.8308  137.4615  159.1220 C.3     1  UNL1        0.0724
     27 C         142.6349  137.1602  157.6658 C.3     1  UNL1        0.0160
     28 C         141.7295  136.8121  156.5216 C.3     1  UNL1        0.0014
     29 C         143.2009  136.9862  156.2877 C.3     1  UNL1        0.0014
@<TRIPOS>BOND
     1     1     2    2
     2     2     3   ar
     3     3    18    1
     4    18    19    1
     5    19    20   ar
     6    20    21   ar
     7    21    22   ar
     8    22    23    1
     9    22    24   ar
    10    24    25   ar
    11     3     4   ar
    12     4     5   ar
    13     5     6   ar
    14     6     7   ar
    15     7     8   ar
    16     8     9   ar
    17     9    10   ar
    18    10    11   ar
    19    11    12   ar
    20    12    13   ar
    21     7    14    1
    22    14    15    1
    23    15    16    1
    24    16    26    1
    25    26    27    1
    26    27    28    1
    27    28    29    1
    28    16    17    1
    29    13     2   ar
    30    29    27    1
    31    25    19   ar
    32     8     4   ar
    33    13     9   ar
    34    17     6    1
@<TRIPOS>MOLECULE
*****
 29 34 0 0 0
SMALL
GASTEIGER

@<TRIPOS>ATOM
      1 O         141.4661  142.9858  164.6872 O.2     1  UNL1       -0.2443
      2 C         140.8866  142.8477  163.3106 C.ar    1  UNL1        0.3532
      3 N         140.7426  141.4896  162.6902 N.ar    1  UNL1       -0.2702
      4 C         140.1632  141.3516  161.3136 C.ar    1  UNL1        0.0965
      5 S         139.9005  140.1530  160.4507 S.2     1  UNL1       -0.0728
      6 C         139.3028  140.6322  159.1612 C.ar    1  UNL1        0.0210
      7 C         139.1959  142.1270  159.2270 C.ar    1  UNL1       -0.0126
      8 C         139.7277  142.5716  160.5573 C.ar    1  UNL1        0.0545
      9 C         139.8717  143.9296  161.1777 C.ar    1  UNL1        0.1717
     10 N         139.5326  145.3026  160.6776 N.ar    1  UNL1       -0.2032
     11 C         139.9024  146.2891  161.7452 C.ar    1  UNL1        0.2214
     12 N         140.4701  145.5260  162.9051 N.ar    1  UNL1       -0.1372
     13 N         140.4511  144.0677  162.5543 N.ar    1  UNL1       -0.1606
     14 C         138.6282  142.8902  158.0672 C.3     1  UNL1        0.0441
     15 C         138.1673  142.1586  156.8415 C.3     1  UNL1        0.0771
     16 N         138.2742  140.6639  156.7756 N.3     1  UNL1       -0.2682
     17 C         138.8418  139.9007  157.9354 C.3     1  UNL1        0.1054
     18 C         141.1782  140.2696  163.4465 C.3     1  UNL1        0.1378
     19 C         140.2110  139.5612  164.3480 C.ar    1  UNL1        0.0006
     20 C         139.7162  138.1914  163.9889 C.ar    1  UNL1       -0.0015
     21 C         138.7491  137.4829  164.8903 C.ar    1  UNL1        0.0111
     22 C         138.2766  138.1444  166.1511 C.ar    1  UNL1        0.0577
     23 CL        137.3094  137.4359  167.0526 Cl      1  UNL1       -0.0822
     24 C         138.7713  139.5141  166.5102 C.ar    1  UNL1        0.0111
     25 C         139.7385  140.2225  165.6087 C.ar    1  UNL1       -0.0015
     26 C         137.8132  139.9323  155.5498 C.3     1  UNL1        0.0724
     27 C         136.4076  140.1070  155.0563 C.3     1  UNL1        0.0160
     28 C         134.9958  139.6106  154.9535 C.3     1  UNL1        0.0014
     29 C         135.3847  140.9058  154.3043 C.3     1  UNL1        0.0014
@<TRIPOS>BOND
     1     1     2    2
     2     2     3   ar
     3     3    18    1
     4    18    19    1
     5    19    20   ar
     6    20    21   ar
     7    21    22   ar
     8    22    23    1
     9    22    24   ar
    10    24    25   ar
    11     3     4   ar
    12     4     5   ar
    13     5     6   ar
    14     6     7   ar
    15     7     8   ar
    16     8     9   ar
    17     9    10   ar
    18    10    11   ar
    19    11    12   ar
    20    12    13   ar
    21     7    14    1
    22    14    15    1
    23    15    16    1
    24    16    26    1
    25    26    27    1
    26    27    28    1
    27    28    29    1
    28    16    17    1
    29    13     2   ar
    30    29    27    1
    31    25    19   ar
    32     8     4   ar
    33    13     9   ar
    34    17     6    1
