@<TRIPOS>MOLECULE
*****
 26 28 0 0 0
SMALL
GASTEIGER

@<TRIPOS>ATOM
      1 C         142.5606  140.0855  165.4572 C.ar    1  UNL1        0.0711
      2 C         142.5892  139.0959  166.5840 C.ar    1  UNL1        0.0235
      3 C         142.5850  139.8617  167.8738 C.ar    1  UNL1        0.0642
      4 C         142.6055  139.4158  169.3058 C.ar    1  UNL1        0.0176
      5 C         142.5949  140.4330  170.4082 C.ar    1  UNL1        0.0030
      6 C         142.5636  141.8960  170.0785 C.ar    1  UNL1        0.0190
      7 C         142.5431  142.3418  168.6465 C.ar    1  UNL1        0.0801
      8 N         142.5538  141.3246  167.5441 N.ar    1  UNL1       -0.3048
      9 C         142.5387  141.4630  166.0506 C.ar    1  UNL1        0.0685
     10 C         142.5073  142.7524  165.2849 C.ar    1  UNL1        0.0193
     11 C         143.7771  143.5151  165.0477 C.ar    1  UNL1        0.0016
     12 C         143.7456  144.8045  164.2820 C.ar    1  UNL1        0.0032
     13 C         142.4445  145.3314  163.7535 C.ar    1  UNL1        0.0369
     14 C         141.1747  144.5688  163.9906 C.ar    1  UNL1        0.1388
     15 C         141.2062  143.2794  164.7563 C.ar    1  UNL1        0.0383
     16 O         139.8736  145.0957  163.4621 O.3     1  UNL1       -0.4714
     17 C         139.8393  145.8408  162.1607 C.3     1  UNL1        0.2525
     18 N         143.8472  139.6879  163.2353 N.am    1  UNL1       -0.2735
     19 C         142.5549  139.7556  163.9939 C.2     1  UNL1        0.2505
     20 O         141.2570  139.4936  163.2892 O.2     1  UNL1       -0.2699
     21 C         143.8960  137.9269  161.3256 C.3     1  UNL1        0.0233
     22 C         143.8415  139.3580  161.7721 C.3     1  UNL1        0.0939
     23 C         145.1452  139.9499  163.9400 C.3     1  UNL1        0.1254
     24 C         145.7970  141.2968  163.8349 C.3     1  UNL1        0.1586
     25 O         145.9362  141.9603  162.4968 O.3     1  UNL1       -0.3802
     26 H         146.5404  141.4438  161.9410 H       1  UNL1        0.2105
@<TRIPOS>BOND
     1    21    22    1
     2    22    18    1
     3    18    23    1
     4    23    24    1
     5    24    25    1
     6    18    19   am
     7    19    20    2
     8    19     1    1
     9     1     2   ar
    10     2     3   ar
    11     3     4   ar
    12     4     5   ar
    13     5     6   ar
    14     6     7   ar
    15     7     8   ar
    16     8     9   ar
    17     9    10    1
    18    10    11   ar
    19    11    12   ar
    20    12    13   ar
    21    13    14   ar
    22    14    16    1
    23    16    17    1
    24    14    15   ar
    25     9     1   ar
    26    15    10   ar
    27     8     3   ar
    28    25    26    1
@<TRIPOS>MOLECULE
*****
 26 28 0 0 0
SMALL
GASTEIGER

@<TRIPOS>ATOM
      1 C         140.2488  139.5005  165.9945 C.ar    1  UNL1        0.0711
      2 C         139.2523  139.5817  167.1126 C.ar    1  UNL1        0.0235
      3 C         139.8895  140.3258  168.2485 C.ar    1  UNL1        0.0642
      4 C         139.3834  140.7075  169.6079 C.ar    1  UNL1        0.0176
      5 C         140.2677  141.4679  170.5512 C.ar    1  UNL1        0.0030
      6 C         141.6581  141.8465  170.1351 C.ar    1  UNL1        0.0190
      7 C         142.1643  141.4649  168.7757 C.ar    1  UNL1        0.0801
      8 N         141.2800  140.7045  167.8324 N.ar    1  UNL1       -0.3048
      9 C         141.5021  140.1944  166.4393 C.ar    1  UNL1        0.0685
     10 C         142.7570  140.3509  165.6328 C.ar    1  UNL1        0.0193
     11 C         143.6234  139.1582  165.3546 C.ar    1  UNL1        0.0016
     12 C         144.8784  139.3146  164.5480 C.ar    1  UNL1        0.0032
     13 C         145.2670  140.6636  164.0196 C.ar    1  UNL1        0.0369
     14 C         144.4007  141.8561  164.2977 C.ar    1  UNL1        0.1388
     15 C         143.1458  141.6997  165.1043 C.ar    1  UNL1        0.0383
     16 O         144.7894  143.2051  163.7693 O.3     1  UNL1       -0.4714
     17 C         144.2352  143.6863  162.4612 C.3     1  UNL1        0.2525
     18 N         139.5117  139.6413  163.5072 N.am    1  UNL1       -0.2735
     19 C         140.0305  138.8412  164.6650 C.2     1  UNL1        0.2505
     20 O         140.3311  137.3817  164.4933 O.2     1  UNL1       -0.2699
     21 C         138.0239  138.2275  161.9141 C.3     1  UNL1        0.0233
     22 C         139.2934  138.9819  162.1777 C.3     1  UNL1        0.0939
     23 C         139.2111  141.1008  163.6789 C.3     1  UNL1        0.1254
     24 C         137.8286  141.5424  164.0578 C.3     1  UNL1        0.1586
     25 O         136.6824  141.3073  163.1190 O.3     1  UNL1       -0.3802
     26 H         136.8079  141.8375  162.3165 H       1  UNL1        0.2105
@<TRIPOS>BOND
     1    21    22    1
     2    22    18    1
     3    18    23    1
     4    23    24    1
     5    24    25    1
     6    18    19   am
     7    19    20    2
     8    19     1    1
     9     1     2   ar
    10     2     3   ar
    11     3     4   ar
    12     4     5   ar
    13     5     6   ar
    14     6     7   ar
    15     7     8   ar
    16     8     9   ar
    17     9    10    1
    18    10    11   ar
    19    11    12   ar
    20    12    13   ar
    21    13    14   ar
    22    14    16    1
    23    16    17    1
    24    14    15   ar
    25     9     1   ar
    26    15    10   ar
    27     8     3   ar
    28    25    26    1
@<TRIPOS>MOLECULE
*****
 26 28 0 0 0
SMALL
GASTEIGER

@<TRIPOS>ATOM
      1 C         140.7617  140.3207  165.7369 C.ar    1  UNL1        0.0711
      2 C         140.0329  139.6200  166.8450 C.ar    1  UNL1        0.0235
      3 C         139.9501  140.5590  168.0118 C.ar    1  UNL1        0.0642
      4 C         139.3451  140.4131  169.3766 C.ar    1  UNL1        0.0176
      5 C         139.4179  141.5481  170.3545 C.ar    1  UNL1        0.0030
      6 C         140.0956  142.8291  169.9675 C.ar    1  UNL1        0.0190
      7 C         140.7006  142.9751  168.6027 C.ar    1  UNL1        0.0801
      8 N         140.6278  141.8400  167.6249 N.ar    1  UNL1       -0.3048
      9 C         141.1294  141.6927  166.2189 C.ar    1  UNL1        0.0685
     10 C         141.8689  142.7346  165.4330 C.ar    1  UNL1        0.0193
     11 C         143.3633  142.8249  165.5273 C.ar    1  UNL1        0.0016
     12 C         144.1027  143.8668  164.7414 C.ar    1  UNL1        0.0032
     13 C         143.3479  144.8183  163.8611 C.ar    1  UNL1        0.0369
     14 C         141.8537  144.7279  163.7667 C.ar    1  UNL1        0.1388
     15 C         141.1142  143.6860  164.5527 C.ar    1  UNL1        0.0383
     16 O         141.0989  145.6793  162.8864 O.3     1  UNL1       -0.4714
     17 C         139.6580  145.4180  162.5615 C.3     1  UNL1        0.2525
     18 N         139.9575  139.4811  163.4135 N.am    1  UNL1       -0.2735
     19 C         141.0690  139.7496  164.3843 C.2     1  UNL1        0.2505
     20 O         142.4876  139.4470  164.0026 O.2     1  UNL1       -0.2699
     21 C         139.2075  138.1605  161.3055 C.3     1  UNL1        0.0233
     22 C         140.2648  138.9100  162.0609 C.3     1  UNL1        0.0939
     23 C         138.5388  139.7837  163.7952 C.3     1  UNL1        0.1254
     24 C         137.9698  141.1489  163.5454 C.3     1  UNL1        0.1586
     25 O         136.5740  141.2943  163.0155 O.3     1  UNL1       -0.3802
     26 H         136.5303  140.9332  162.1162 H       1  UNL1        0.2105
@<TRIPOS>BOND
     1    21    22    1
     2    22    18    1
     3    18    23    1
     4    23    24    1
     5    24    25    1
     6    18    19   am
     7    19    20    2
     8    19     1    1
     9     1     2   ar
    10     2     3   ar
    11     3     4   ar
    12     4     5   ar
    13     5     6   ar
    14     6     7   ar
    15     7     8   ar
    16     8     9   ar
    17     9    10    1
    18    10    11   ar
    19    11    12   ar
    20    12    13   ar
    21    13    14   ar
    22    14    16    1
    23    16    17    1
    24    14    15   ar
    25     9     1   ar
    26    15    10   ar
    27     8     3   ar
    28    25    26    1
@<TRIPOS>MOLECULE
*****
 26 28 0 0 0
SMALL
GASTEIGER

@<TRIPOS>ATOM
      1 C         143.2757  139.9951  165.5303 C.ar    1  UNL1        0.0711
      2 C         143.2043  138.9711  166.6241 C.ar    1  UNL1        0.0235
      3 C         142.6864  139.6472  167.8589 C.ar    1  UNL1        0.0642
      4 C         142.4091  139.1362  169.2416 C.ar    1  UNL1        0.0176
      5 C         141.8831  140.0671  170.2936 C.ar    1  UNL1        0.0030
      6 C         141.6344  141.5089  169.9630 C.ar    1  UNL1        0.0190
      7 C         141.9117  142.0199  168.5802 C.ar    1  UNL1        0.0801
      8 N         142.4377  141.0890  167.5282 N.ar    1  UNL1       -0.3048
      9 C         142.8019  141.3040  166.0890 C.ar    1  UNL1        0.0685
     10 C         142.7087  142.6003  165.3402 C.ar    1  UNL1        0.0193
     11 C         143.9570  143.3515  164.9828 C.ar    1  UNL1        0.0016
     12 C         143.8637  144.6479  164.2339 C.ar    1  UNL1        0.0032
     13 C         142.5223  145.1930  163.8424 C.ar    1  UNL1        0.0369
     14 C         141.2741  144.4419  164.1997 C.ar    1  UNL1        0.1388
     15 C         141.3673  143.1455  164.9486 C.ar    1  UNL1        0.0383
     16 O         139.9327  144.9870  163.8081 O.3     1  UNL1       -0.4714
     17 C         138.7349  144.7239  164.6719 C.3     1  UNL1        0.2525
     18 N         142.7505  139.3684  163.0642 N.am    1  UNL1       -0.2735
     19 C         143.7395  139.7526  164.1245 C.2     1  UNL1        0.2505
     20 O         145.1922  139.8944  163.7790 O.2     1  UNL1       -0.2699
     21 C         143.9258  137.8515  161.3127 C.3     1  UNL1        0.0233
     22 C         143.2142  139.1260  161.6585 C.3     1  UNL1        0.0939
     23 C         141.2976  139.2266  163.4096 C.3     1  UNL1        0.1254
     24 C         140.5504  137.9874  163.0149 C.3     1  UNL1        0.1586
     25 O         141.2155  136.6466  163.1148 O.3     1  UNL1       -0.3802
     26 H         141.9496  136.6019  162.4823 H       1  UNL1        0.2105
@<TRIPOS>BOND
     1    21    22    1
     2    22    18    1
     3    18    23    1
     4    23    24    1
     5    24    25    1
     6    18    19   am
     7    19    20    2
     8    19     1    1
     9     1     2   ar
    10     2     3   ar
    11     3     4   ar
    12     4     5   ar
    13     5     6   ar
    14     6     7   ar
    15     7     8   ar
    16     8     9   ar
    17     9    10    1
    18    10    11   ar
    19    11    12   ar
    20    12    13   ar
    21    13    14   ar
    22    14    16    1
    23    16    17    1
    24    14    15   ar
    25     9     1   ar
    26    15    10   ar
    27     8     3   ar
    28    25    26    1
@<TRIPOS>MOLECULE
*****
 26 28 0 0 0
SMALL
GASTEIGER

@<TRIPOS>ATOM
      1 C         141.4912  140.3965  167.0617 C.ar    1  UNL1        0.0711
      2 C         142.7393  139.5649  167.0355 C.ar    1  UNL1        0.0235
      3 C         143.3406  139.6745  165.6656 C.ar    1  UNL1        0.0642
      4 C         144.5730  139.0715  165.0594 C.ar    1  UNL1        0.0176
      5 C         144.9289  139.3680  163.6327 C.ar    1  UNL1        0.0030
      6 C         144.0525  140.2673  162.8123 C.ar    1  UNL1        0.0190
      7 C         142.8201  140.8703  163.4186 C.ar    1  UNL1        0.0801
      8 N         142.4642  140.5738  164.8453 N.ar    1  UNL1       -0.3048
      9 C         141.3212  141.0200  165.7081 C.ar    1  UNL1        0.0685
     10 C         140.2042  141.9301  165.2906 C.ar    1  UNL1        0.0193
     11 C         140.0898  143.3006  165.8895 C.ar    1  UNL1        0.0016
     12 C         138.9728  144.2107  165.4720 C.ar    1  UNL1        0.0032
     13 C         137.9704  143.7502  164.4556 C.ar    1  UNL1        0.0369
     14 C         138.0848  142.3797  163.8567 C.ar    1  UNL1        0.1388
     15 C         139.2018  141.4697  164.2743 C.ar    1  UNL1        0.0383
     16 O         137.0824  141.9193  162.8404 O.3     1  UNL1       -0.4714
     17 C         137.4581  140.8668  161.8397 C.3     1  UNL1        0.2525
     18 N         140.8345  141.6628  169.2332 N.am    1  UNL1       -0.2735
     19 C         140.5741  140.5734  168.2355 C.2     1  UNL1        0.2505
     20 O         139.3967  139.6610  168.4116 O.2     1  UNL1       -0.2699
     21 C         139.5551  143.2183  170.8744 C.3     1  UNL1        0.0233
     22 C         139.9175  141.8398  170.4069 C.3     1  UNL1        0.0939
     23 C         142.0120  142.5753  169.0571 C.3     1  UNL1        0.1254
     24 C         143.1451  142.5355  170.0392 C.3     1  UNL1        0.1586
     25 O         143.3430  143.6685  171.0022 O.3     1  UNL1       -0.3802
     26 H         143.5808  144.4713  170.5125 H       1  UNL1        0.2105
@<TRIPOS>BOND
     1    21    22    1
     2    22    18    1
     3    18    23    1
     4    23    24    1
     5    24    25    1
     6    18    19   am
     7    19    20    2
     8    19     1    1
     9     1     2   ar
    10     2     3   ar
    11     3     4   ar
    12     4     5   ar
    13     5     6   ar
    14     6     7   ar
    15     7     8   ar
    16     8     9   ar
    17     9    10    1
    18    10    11   ar
    19    11    12   ar
    20    12    13   ar
    21    13    14   ar
    22    14    16    1
    23    16    17    1
    24    14    15   ar
    25     9     1   ar
    26    15    10   ar
    27     8     3   ar
    28    25    26    1
@<TRIPOS>MOLECULE
*****
 26 28 0 0 0
SMALL
GASTEIGER

@<TRIPOS>ATOM
      1 C         142.7445  141.3811  167.0609 C.ar    1  UNL1        0.0711
      2 C         143.6275  142.5693  166.8189 C.ar    1  UNL1        0.0235
      3 C         143.5840  142.8886  165.3539 C.ar    1  UNL1        0.0642
      4 C         144.2553  143.9535  164.5384 C.ar    1  UNL1        0.0176
      5 C         144.0167  144.0276  163.0594 C.ar    1  UNL1        0.0030
      6 C         143.1068  143.0367  162.3959 C.ar    1  UNL1        0.0190
      7 C         142.4354  141.9718  163.2114 C.ar    1  UNL1        0.0801
      8 N         142.6740  141.8977  164.6904 N.ar    1  UNL1       -0.3048
      9 C         142.1552  140.9661  165.7454 C.ar    1  UNL1        0.0685
     10 C         141.2126  139.8205  165.5237 C.ar    1  UNL1        0.0193
     11 C         141.6631  138.6177  164.7488 C.ar    1  UNL1        0.0016
     12 C         140.7205  137.4721  164.5272 C.ar    1  UNL1        0.0032
     13 C         139.3274  137.5293  165.0804 C.ar    1  UNL1        0.0369
     14 C         138.8769  138.7320  165.8552 C.ar    1  UNL1        0.1388
     15 C         139.8195  139.8776  166.0769 C.ar    1  UNL1        0.0383
     16 O         137.4838  138.7892  166.4084 O.3     1  UNL1       -0.4714
     17 C         137.0700  137.8447  167.4977 C.3     1  UNL1        0.2525
     18 N         141.8004  141.4797  169.4793 N.am    1  UNL1       -0.2735
     19 C         142.4946  140.7235  168.3857 C.2     1  UNL1        0.2505
     20 O         142.9389  139.3096  168.6168 O.2     1  UNL1       -0.2699
     21 C         140.3620  139.9248  170.9837 C.3     1  UNL1        0.0233
     22 C         141.5505  140.8221  170.8041 C.3     1  UNL1        0.0939
     23 C         141.3560  142.8937  169.2482 C.3     1  UNL1        0.1254
     24 C         140.1594  143.4321  169.9750 C.3     1  UNL1        0.1586
     25 O         140.0966  144.8849  170.3434 O.3     1  UNL1       -0.3802
     26 H         140.7859  145.0829  170.9965 H       1  UNL1        0.2105
@<TRIPOS>BOND
     1    21    22    1
     2    22    18    1
     3    18    23    1
     4    23    24    1
     5    24    25    1
     6    18    19   am
     7    19    20    2
     8    19     1    1
     9     1     2   ar
    10     2     3   ar
    11     3     4   ar
    12     4     5   ar
    13     5     6   ar
    14     6     7   ar
    15     7     8   ar
    16     8     9   ar
    17     9    10    1
    18    10    11   ar
    19    11    12   ar
    20    12    13   ar
    21    13    14   ar
    22    14    16    1
    23    16    17    1
    24    14    15   ar
    25     9     1   ar
    26    15    10   ar
    27     8     3   ar
    28    25    26    1
@<TRIPOS>MOLECULE
*****
 26 28 0 0 0
SMALL
GASTEIGER

@<TRIPOS>ATOM
      1 C         139.3521  140.6173  165.8857 C.ar    1  UNL1        0.0711
      2 C         139.0341  139.8243  167.1186 C.ar    1  UNL1        0.0235
      3 C         139.7258  140.4751  168.2796 C.ar    1  UNL1        0.0642
      4 C         139.7732  140.1338  169.7394 C.ar    1  UNL1        0.0176
      5 C         140.5660  140.9877  170.6839 C.ar    1  UNL1        0.0030
      6 C         141.3116  142.1830  170.1686 C.ar    1  UNL1        0.0190
      7 C         141.2642  142.5243  168.7087 C.ar    1  UNL1        0.0801
      8 N         140.4714  141.6703  167.7642 N.ar    1  UNL1       -0.3048
      9 C         140.2404  141.7582  166.2847 C.ar    1  UNL1        0.0685
     10 C         140.7995  142.8035  165.3656 C.ar    1  UNL1        0.0193
     11 C         142.2839  142.9340  165.1930 C.ar    1  UNL1        0.0016
     12 C         142.8431  143.9793  164.2739 C.ar    1  UNL1        0.0032
     13 C         141.9179  144.8941  163.5274 C.ar    1  UNL1        0.0369
     14 C         140.4336  144.7635  163.7000 C.ar    1  UNL1        0.1388
     15 C         139.8745  143.7182  164.6191 C.ar    1  UNL1        0.0383
     16 O         139.5085  145.6783  162.9535 O.3     1  UNL1       -0.4714
     17 C         139.8546  146.1240  161.5637 C.3     1  UNL1        0.2525
     18 N         139.6882  139.4609  163.5835 N.am    1  UNL1       -0.2735
     19 C         138.8670  140.3213  164.4975 C.2     1  UNL1        0.2505
     20 O         137.5607  140.8857  164.0232 O.2     1  UNL1       -0.2699
     21 C         138.1558  138.1138  161.9750 C.3     1  UNL1        0.0233
     22 C         139.2031  139.1649  162.1953 C.3     1  UNL1        0.0939
     23 C         140.9945  138.8964  164.0578 C.3     1  UNL1        0.1254
     24 C         141.1684  137.4119  164.1841 C.3     1  UNL1        0.1586
     25 O         141.2721  136.5614  162.9528 O.3     1  UNL1       -0.3802
     26 H         140.4305  136.5859  162.4712 H       1  UNL1        0.2105
@<TRIPOS>BOND
     1    21    22    1
     2    22    18    1
     3    18    23    1
     4    23    24    1
     5    24    25    1
     6    18    19   am
     7    19    20    2
     8    19     1    1
     9     1     2   ar
    10     2     3   ar
    11     3     4   ar
    12     4     5   ar
    13     5     6   ar
    14     6     7   ar
    15     7     8   ar
    16     8     9   ar
    17     9    10    1
    18    10    11   ar
    19    11    12   ar
    20    12    13   ar
    21    13    14   ar
    22    14    16    1
    23    16    17    1
    24    14    15   ar
    25     9     1   ar
    26    15    10   ar
    27     8     3   ar
    28    25    26    1
@<TRIPOS>MOLECULE
*****
 26 28 0 0 0
SMALL
GASTEIGER

@<TRIPOS>ATOM
      1 C         143.0075  141.4267  166.0945 C.ar    1  UNL1        0.0711
      2 C         143.2211  142.3454  167.2609 C.ar    1  UNL1        0.0235
      3 C         142.0850  142.1484  168.2203 C.ar    1  UNL1        0.0642
      4 C         141.7661  142.7820  169.5419 C.ar    1  UNL1        0.0176
      5 C         140.5313  142.3752  170.2901 C.ar    1  UNL1        0.0030
      6 C         139.6155  141.3348  169.7167 C.ar    1  UNL1        0.0190
      7 C         139.9345  140.7011  168.3951 C.ar    1  UNL1        0.0801
      8 N         141.1692  141.1080  167.6469 N.ar    1  UNL1       -0.3048
      9 C         141.7394  140.6619  166.3331 C.ar    1  UNL1        0.0685
     10 C         141.1456  139.6319  165.4185 C.ar    1  UNL1        0.0193
     11 C         141.7628  138.2680  165.3237 C.ar    1  UNL1        0.0016
     12 C         141.1690  137.2380  164.4091 C.ar    1  UNL1        0.0032
     13 C         139.9580  137.5718  163.5893 C.ar    1  UNL1        0.0369
     14 C         139.3409  138.9357  163.6841 C.ar    1  UNL1        0.1388
     15 C         139.9347  139.9657  164.5987 C.ar    1  UNL1        0.0383
     16 O         138.1299  139.2695  162.8643 O.3     1  UNL1       -0.4714
     17 C         137.7578  138.4109  161.6919 C.3     1  UNL1        0.2525
     18 N         144.0161  142.4246  163.9181 N.am    1  UNL1       -0.2735
     19 C         143.9045  141.2957  164.8995 C.2     1  UNL1        0.2505
     20 O         144.6900  140.0359  164.6857 O.2     1  UNL1       -0.2699
     21 C         144.4145  141.6148  161.4818 C.3     1  UNL1        0.0233
     22 C         144.9131  142.2937  162.7231 C.3     1  UNL1        0.0939
     23 C         143.2306  143.6846  164.1318 C.3     1  UNL1        0.1254
     24 C         143.5137  144.8961  163.2941 C.3     1  UNL1        0.1586
     25 O         142.8336  145.0668  161.9680 O.3     1  UNL1       -0.3802
     26 H         143.1343  144.3743  161.3589 H       1  UNL1        0.2105
@<TRIPOS>BOND
     1    21    22    1
     2    22    18    1
     3    18    23    1
     4    23    24    1
     5    24    25    1
     6    18    19   am
     7    19    20    2
     8    19     1    1
     9     1     2   ar
    10     2     3   ar
    11     3     4   ar
    12     4     5   ar
    13     5     6   ar
    14     6     7   ar
    15     7     8   ar
    16     8     9   ar
    17     9    10    1
    18    10    11   ar
    19    11    12   ar
    20    12    13   ar
    21    13    14   ar
    22    14    16    1
    23    16    17    1
    24    14    15   ar
    25     9     1   ar
    26    15    10   ar
    27     8     3   ar
    28    25    26    1
@<TRIPOS>MOLECULE
*****
 26 28 0 0 0
SMALL
GASTEIGER

@<TRIPOS>ATOM
      1 C         139.9741  140.4295  165.3478 C.ar    1  UNL1        0.0711
      2 C         139.3631  139.7215  166.5206 C.ar    1  UNL1        0.0235
      3 C         139.6289  140.5425  167.7476 C.ar    1  UNL1        0.0642
      4 C         139.2651  140.3404  169.1887 C.ar    1  UNL1        0.0176
      5 C         139.6767  141.3536  170.2152 C.ar    1  UNL1        0.0030
      6 C         140.4521  142.5689  169.8008 C.ar    1  UNL1        0.0190
      7 C         140.8159  142.7710  168.3597 C.ar    1  UNL1        0.0801
      8 N         140.4043  141.7578  167.3331 N.ar    1  UNL1       -0.3048
      9 C         140.6176  141.6879  165.8500 C.ar    1  UNL1        0.0685
     10 C         141.3466  142.6991  165.0155 C.ar    1  UNL1        0.0193
     11 C         140.7155  144.0291  164.7277 C.ar    1  UNL1        0.0016
     12 C         141.4444  145.0403  163.8933 C.ar    1  UNL1        0.0032
     13 C         142.8043  144.7214  163.3466 C.ar    1  UNL1        0.0369
     14 C         143.4354  143.3914  163.6344 C.ar    1  UNL1        0.1388
     15 C         142.7064  142.3803  164.4689 C.ar    1  UNL1        0.0383
     16 O         144.7953  143.0725  163.0877 O.3     1  UNL1       -0.4714
     17 C         144.9521  142.0124  162.0381 C.3     1  UNL1        0.2525
     18 N         138.8387  140.3983  163.0112 N.am    1  UNL1       -0.2735
     19 C         139.9465  139.9611  163.9231 C.2     1  UNL1        0.2505
     20 O         141.0268  139.0557  163.4102 O.2     1  UNL1       -0.2699
     21 C         137.6126  139.1966  161.0611 C.3     1  UNL1        0.0233
     22 C         138.8111  139.9300  161.5865 C.3     1  UNL1        0.0939
     23 C         137.7583  141.3038  163.5241 C.3     1  UNL1        0.1254
     24 C         137.7531  142.7549  163.1446 C.3     1  UNL1        0.1586
     25 O         137.4733  143.1585  161.7272 O.3     1  UNL1       -0.3802
     26 H         138.1895  142.8434  161.1539 H       1  UNL1        0.2105
@<TRIPOS>BOND
     1    21    22    1
     2    22    18    1
     3    18    23    1
     4    23    24    1
     5    24    25    1
     6    18    19   am
     7    19    20    2
     8    19     1    1
     9     1     2   ar
    10     2     3   ar
    11     3     4   ar
    12     4     5   ar
    13     5     6   ar
    14     6     7   ar
    15     7     8   ar
    16     8     9   ar
    17     9    10    1
    18    10    11   ar
    19    11    12   ar
    20    12    13   ar
    21    13    14   ar
    22    14    16    1
    23    16    17    1
    24    14    15   ar
    25     9     1   ar
    26    15    10   ar
    27     8     3   ar
    28    25    26    1
