@<TRIPOS>MOLECULE
*****
 30 33 0 0 0
SMALL
GASTEIGER

@<TRIPOS>ATOM
      1 C         142.3496  138.5149  165.7838 C.ar    1  UNL1        0.1572
      2 C         141.7564  137.6850  164.6841 C.ar    1  UNL1        0.0575
      3 C         140.4812  138.1170  164.0229 C.ar    1  UNL1        0.0888
      4 N         139.8880  137.2871  162.9232 N.ar    1  UNL1       -0.2238
      5 C         138.6128  137.7191  162.2621 C.ar    1  UNL1        0.2000
      6 N         137.9307  138.9811  162.7007 N.ar    1  UNL1       -0.2089
      7 C         138.5239  139.8110  163.8003 C.ar    1  UNL1        0.1353
      8 C         139.7991  139.3789  164.4615 C.ar    1  UNL1        0.0509
      9 C         140.3924  140.2089  165.5612 C.ar    1  UNL1        0.0257
     10 C         141.6676  139.7768  166.2223 C.ar    1  UNL1        0.1395
     11 S         142.2608  140.6068  167.3221 S.O2    1  UNL1        0.0083
     12 O         142.9993  141.4261  166.3055 O.2     1  UNL1       -0.1686
     13 O         141.5224  139.7875  168.3386 O.2     1  UNL1       -0.1686
     14 C         142.8540  141.4366  168.4218 C.3     1  UNL1        0.1152
     15 C         143.2357  142.4881  167.4225 C.3     1  UNL1        0.0240
     16 C         142.4723  140.3852  169.4211 C.3     1  UNL1        0.0240
     17 C         143.4472  142.2665  169.5215 C.3     1  UNL1        0.0240
     18 C         144.9451  138.4019  165.8085 C.3     1  UNL1        0.2525
     19 O         143.6249  138.0829  166.4449 O.3     1  UNL1       -0.4701
     20 N         137.8418  141.0729  164.2389 N.pl3   1  UNL1       -0.2978
     21 H         137.0804  141.0301  164.8615 H       1  UNL1        0.1536
     22 C         138.3200  142.4000  163.7289 C.ar    1  UNL1        0.0509
     23 C         138.3819  143.5804  164.6526 C.ar    1  UNL1        0.0153
     24 C         138.8600  144.9075  164.1426 C.ar    1  UNL1        0.0093
     25 C         139.2762  145.0544  162.7090 C.ar    1  UNL1        0.0486
     26 S         139.7864  146.2285  161.9273 S.2     1  UNL1       -0.0645
     27 C         140.0398  145.7738  160.5205 C.ar    1  UNL1        0.1345
     28 N         139.6862  144.3187  160.4328 N.ar    1  UNL1       -0.2362
     29 C         139.2143  143.8741  161.7854 C.ar    1  UNL1        0.0892
     30 C         138.7362  142.5469  162.2953 C.ar    1  UNL1        0.0343
@<TRIPOS>BOND
     1    18    19    1
     2    19     1    1
     3     1     2   ar
     4     2     3   ar
     5     3     4   ar
     6     4     5   ar
     7     5     6   ar
     8     6     7   ar
     9     7    20    1
    10    20    22    1
    11    22    23   ar
    12    23    24   ar
    13    24    25   ar
    14    25    26   ar
    15    26    27   ar
    16    27    28   ar
    17    28    29   ar
    18    29    30   ar
    19     7     8   ar
    20     8     9   ar
    21     9    10   ar
    22    10    11    1
    23    11    12    2
    24    11    13    2
    25    11    14    1
    26    14    15    1
    27    14    16    1
    28    14    17    1
    29    10     1   ar
    30     8     3   ar
    31    30    22   ar
    32    29    25   ar
    33    20    21    1
@<TRIPOS>MOLECULE
*****
 30 33 0 0 0
SMALL
GASTEIGER

@<TRIPOS>ATOM
      1 C         142.2857  139.4921  167.5950 C.ar    1  UNL1        0.1572
      2 C         142.7707  138.6445  166.4564 C.ar    1  UNL1        0.0575
      3 C         141.9934  138.5944  165.1745 C.ar    1  UNL1        0.0888
      4 N         142.4785  137.7469  164.0359 N.ar    1  UNL1       -0.2238
      5 C         141.7012  137.6968  162.7540 C.ar    1  UNL1        0.2000
      6 N         140.4389  138.4943  162.6107 N.ar    1  UNL1       -0.2089
      7 C         139.9538  139.3418  163.7492 C.ar    1  UNL1        0.1353
      8 C         140.7311  139.3919  165.0311 C.ar    1  UNL1        0.0509
      9 C         140.2461  140.2395  166.1698 C.ar    1  UNL1        0.0257
     10 C         141.0233  140.2895  167.4516 C.ar    1  UNL1        0.1395
     11 S         140.5383  141.1371  168.5903 S.O2    1  UNL1        0.0083
     12 O         141.3511  142.2894  168.0788 O.2     1  UNL1       -0.1686
     13 O         139.7255  139.9848  169.1017 O.2     1  UNL1       -0.1686
     14 C         140.0532  141.9846  169.7289 C.3     1  UNL1        0.1152
     15 C         141.0152  143.0657  169.3340 C.3     1  UNL1        0.0240
     16 C         139.0913  140.9036  170.1237 C.3     1  UNL1        0.0240
     17 C         139.5682  142.8321  170.8675 C.3     1  UNL1        0.0240
     18 C         142.7881  138.5418  169.9603 C.3     1  UNL1        0.2525
     19 O         143.0630  139.5422  168.8770 O.3     1  UNL1       -0.4701
     20 N         138.6915  140.1393  163.6059 N.pl3   1  UNL1       -0.2978
     21 H         137.8176  139.7055  163.7375 H       1  UNL1        0.1536
     22 C         138.7606  141.5977  163.2621 C.ar    1  UNL1        0.0509
     23 C         137.7840  142.5592  163.8718 C.ar    1  UNL1        0.0153
     24 C         137.8531  144.0175  163.5279 C.ar    1  UNL1        0.0093
     25 C         138.8989  144.5145  162.5744 C.ar    1  UNL1        0.0486
     26 S         139.2094  145.8853  162.0504 S.2     1  UNL1       -0.0645
     27 C         140.3779  145.7711  161.1169 C.ar    1  UNL1        0.1345
     28 N         140.7896  144.3297  161.0639 N.ar    1  UNL1       -0.2362
     29 C         139.8756  143.5531  161.9647 C.ar    1  UNL1        0.0892
     30 C         139.8065  142.0947  162.3085 C.ar    1  UNL1        0.0343
@<TRIPOS>BOND
     1    18    19    1
     2    19     1    1
     3     1     2   ar
     4     2     3   ar
     5     3     4   ar
     6     4     5   ar
     7     5     6   ar
     8     6     7   ar
     9     7    20    1
    10    20    22    1
    11    22    23   ar
    12    23    24   ar
    13    24    25   ar
    14    25    26   ar
    15    26    27   ar
    16    27    28   ar
    17    28    29   ar
    18    29    30   ar
    19     7     8   ar
    20     8     9   ar
    21     9    10   ar
    22    10    11    1
    23    11    12    2
    24    11    13    2
    25    11    14    1
    26    14    15    1
    27    14    16    1
    28    14    17    1
    29    10     1   ar
    30     8     3   ar
    31    30    22   ar
    32    29    25   ar
    33    20    21    1
@<TRIPOS>MOLECULE
*****
 30 33 0 0 0
SMALL
GASTEIGER

@<TRIPOS>ATOM
      1 C         141.9299  141.1263  167.1884 C.ar    1  UNL1        0.1572
      2 C         140.6909  140.7585  167.9497 C.ar    1  UNL1        0.0575
      3 C         139.7062  139.7934  167.3588 C.ar    1  UNL1        0.0888
      4 N         138.4673  139.4257  168.1201 N.ar    1  UNL1       -0.2238
      5 C         137.4827  138.4606  167.5292 C.ar    1  UNL1        0.2000
      6 N         137.7371  137.8633  166.1770 N.ar    1  UNL1       -0.2089
      7 C         138.9760  138.2311  165.4157 C.ar    1  UNL1        0.1353
      8 C         139.9606  139.1961  166.0066 C.ar    1  UNL1        0.0509
      9 C         141.1997  139.5639  165.2453 C.ar    1  UNL1        0.0257
     10 C         142.1842  140.5290  165.8362 C.ar    1  UNL1        0.1395
     11 S         143.4233  140.8968  165.0748 S.O2    1  UNL1        0.0083
     12 O         144.0591  139.6012  165.4836 O.2     1  UNL1       -0.1686
     13 O         142.7875  142.1924  164.6661 O.2     1  UNL1       -0.1686
     14 C         144.6623  141.2646  164.3135 C.3     1  UNL1        0.1152
     15 C         144.4420  142.7090  164.6530 C.3     1  UNL1        0.0240
     16 C         144.8825  139.8203  163.9741 C.3     1  UNL1        0.0240
     17 C         145.9012  141.6325  163.5522 C.3     1  UNL1        0.0240
     18 C         143.0037  142.2549  169.2676 C.3     1  UNL1        0.2525
     19 O         142.9145  142.0914  167.7793 O.3     1  UNL1       -0.4701
     20 N         139.2304  137.6338  164.0635 N.pl3   1  UNL1       -0.2978
     21 H         139.5942  136.7220  163.9886 H       1  UNL1        0.1536
     22 C         138.9305  138.4256  162.8253 C.ar    1  UNL1        0.0509
     23 C         138.0404  139.6305  162.9028 C.ar    1  UNL1        0.0153
     24 C         137.7405  140.4223  161.6647 C.ar    1  UNL1        0.0093
     25 C         138.3307  140.0093  160.3490 C.ar    1  UNL1        0.0486
     26 S         138.2151  140.5897  158.9707 S.2     1  UNL1       -0.0645
     27 C         139.0337  139.7435  158.0413 C.ar    1  UNL1        0.1345
     28 N         139.6554  138.6402  158.8452 N.ar    1  UNL1       -0.2362
     29 C         139.2208  138.8045  160.2714 C.ar    1  UNL1        0.0892
     30 C         139.5208  138.0126  161.5096 C.ar    1  UNL1        0.0343
@<TRIPOS>BOND
     1    18    19    1
     2    19     1    1
     3     1     2   ar
     4     2     3   ar
     5     3     4   ar
     6     4     5   ar
     7     5     6   ar
     8     6     7   ar
     9     7    20    1
    10    20    22    1
    11    22    23   ar
    12    23    24   ar
    13    24    25   ar
    14    25    26   ar
    15    26    27   ar
    16    27    28   ar
    17    28    29   ar
    18    29    30   ar
    19     7     8   ar
    20     8     9   ar
    21     9    10   ar
    22    10    11    1
    23    11    12    2
    24    11    13    2
    25    11    14    1
    26    14    15    1
    27    14    16    1
    28    14    17    1
    29    10     1   ar
    30     8     3   ar
    31    30    22   ar
    32    29    25   ar
    33    20    21    1
@<TRIPOS>MOLECULE
*****
 30 33 0 0 0
SMALL
GASTEIGER

@<TRIPOS>ATOM
      1 C         142.9525  142.2003  167.4432 C.ar    1  UNL1        0.1572
      2 C         143.9104  142.8489  166.4885 C.ar    1  UNL1        0.0575
      3 C         143.4059  143.4397  165.2053 C.ar    1  UNL1        0.0888
      4 N         144.3638  144.0884  164.2506 N.ar    1  UNL1       -0.2238
      5 C         143.8593  144.6791  162.9675 C.ar    1  UNL1        0.2000
      6 N         142.3968  144.6213  162.6391 N.ar    1  UNL1       -0.2089
      7 C         141.4389  143.9726  163.5939 C.ar    1  UNL1        0.1353
      8 C         141.9434  143.3819  164.8770 C.ar    1  UNL1        0.0509
      9 C         140.9855  142.7332  165.8318 C.ar    1  UNL1        0.0257
     10 C         141.4900  142.1424  167.1149 C.ar    1  UNL1        0.1395
     11 S         140.5321  141.4938  168.0697 S.O2    1  UNL1        0.0083
     12 O         140.3162  142.8133  168.7496 O.2     1  UNL1       -0.1686
     13 O         140.7480  140.1743  167.3898 O.2     1  UNL1       -0.1686
     14 C         139.5742  140.8451  169.0245 C.3     1  UNL1        0.1152
     15 C         139.9052  141.8793  170.0592 C.3     1  UNL1        0.0240
     16 C         139.2432  139.8109  167.9897 C.3     1  UNL1        0.0240
     17 C         138.6163  140.1964  169.9792 C.3     1  UNL1        0.0240
     18 C         143.8356  142.5066  169.8674 C.3     1  UNL1        0.2525
     19 O         143.4570  141.6095  168.7264 O.3     1  UNL1       -0.4701
     20 N         139.9764  143.9148  163.2655 N.pl3   1  UNL1       -0.2978
     21 H         139.4317  144.7342  163.2985 H       1  UNL1        0.1536
     22 C         139.3439  142.6085  162.8868 C.ar    1  UNL1        0.0509
     23 C         137.9291  142.3153  163.2902 C.ar    1  UNL1        0.0153
     24 C         137.2966  141.0090  162.9116 C.ar    1  UNL1        0.0093
     25 C         138.0787  139.9958  162.1295 C.ar    1  UNL1        0.0486
     26 S         137.7237  138.6316  161.6168 S.2     1  UNL1       -0.0645
     27 C         138.9190  138.0816  160.8965 C.ar    1  UNL1        0.1345
     28 N         140.0127  139.1059  160.9640 N.ar    1  UNL1       -0.2362
     29 C         139.4934  140.2889  161.7260 C.ar    1  UNL1        0.0892
     30 C         140.1260  141.5952  162.1047 C.ar    1  UNL1        0.0343
@<TRIPOS>BOND
     1    18    19    1
     2    19     1    1
     3     1     2   ar
     4     2     3   ar
     5     3     4   ar
     6     4     5   ar
     7     5     6   ar
     8     6     7   ar
     9     7    20    1
    10    20    22    1
    11    22    23   ar
    12    23    24   ar
    13    24    25   ar
    14    25    26   ar
    15    26    27   ar
    16    27    28   ar
    17    28    29   ar
    18    29    30   ar
    19     7     8   ar
    20     8     9   ar
    21     9    10   ar
    22    10    11    1
    23    11    12    2
    24    11    13    2
    25    11    14    1
    26    14    15    1
    27    14    16    1
    28    14    17    1
    29    10     1   ar
    30     8     3   ar
    31    30    22   ar
    32    29    25   ar
    33    20    21    1
@<TRIPOS>MOLECULE
*****
 30 33 0 0 0
SMALL
GASTEIGER

@<TRIPOS>ATOM
      1 C         138.8465  139.5828  166.6266 C.ar    1  UNL1        0.1572
      2 C         139.4663  140.0534  167.9089 C.ar    1  UNL1        0.0575
      3 C         140.7199  140.8766  167.8783 C.ar    1  UNL1        0.0888
      4 N         141.3397  141.3471  169.1606 N.ar    1  UNL1       -0.2238
      5 C         142.5933  142.1702  169.1299 C.ar    1  UNL1        0.2000
      6 N         143.2271  142.5228  167.8169 N.ar    1  UNL1       -0.2089
      7 C         142.6073  142.0522  166.5346 C.ar    1  UNL1        0.1353
      8 C         141.3537  141.2291  166.5653 C.ar    1  UNL1        0.0509
      9 C         140.7339  140.7585  165.2829 C.ar    1  UNL1        0.0257
     10 C         139.4803  139.9354  165.3136 C.ar    1  UNL1        0.1395
     11 S         138.8605  139.4648  164.0312 S.O2    1  UNL1        0.0083
     12 O         139.7877  138.2859  164.0156 O.2     1  UNL1       -0.1686
     13 O         137.9332  140.6437  164.0468 O.2     1  UNL1       -0.1686
     14 C         138.2406  138.9943  162.7489 C.3     1  UNL1        0.1152
     15 C         137.7036  140.3730  162.5025 C.3     1  UNL1        0.0240
     16 C         138.7776  137.6155  162.9953 C.3     1  UNL1        0.0240
     17 C         137.6208  138.5237  161.4666 C.3     1  UNL1        0.0240
     18 C         137.6794  137.2628  166.6993 C.3     1  UNL1        0.2525
     19 O         137.5929  138.7597  166.6572 O.3     1  UNL1       -0.4701
     20 N         143.2411  142.4048  165.2215 N.pl3   1  UNL1       -0.2978
     21 H         144.1541  142.0981  165.0176 H       1  UNL1        0.1536
     22 C         142.4838  143.2246  164.2193 C.ar    1  UNL1        0.0509
     23 C         141.3227  144.0651  164.6616 C.ar    1  UNL1        0.0153
     24 C         140.5654  144.8848  163.6594 C.ar    1  UNL1        0.0093
     25 C         140.9692  144.8642  162.2149 C.ar    1  UNL1        0.0486
     26 S         140.4163  145.5627  161.0081 S.2     1  UNL1       -0.0645
     27 C         141.2357  145.1540  159.8200 C.ar    1  UNL1        0.1345
     28 N         142.2950  144.2029  160.2925 N.ar    1  UNL1       -0.2362
     29 C         142.1303  144.0238  161.7726 C.ar    1  UNL1        0.0892
     30 C         142.8876  143.2040  162.7749 C.ar    1  UNL1        0.0343
@<TRIPOS>BOND
     1    18    19    1
     2    19     1    1
     3     1     2   ar
     4     2     3   ar
     5     3     4   ar
     6     4     5   ar
     7     5     6   ar
     8     6     7   ar
     9     7    20    1
    10    20    22    1
    11    22    23   ar
    12    23    24   ar
    13    24    25   ar
    14    25    26   ar
    15    26    27   ar
    16    27    28   ar
    17    28    29   ar
    18    29    30   ar
    19     7     8   ar
    20     8     9   ar
    21     9    10   ar
    22    10    11    1
    23    11    12    2
    24    11    13    2
    25    11    14    1
    26    14    15    1
    27    14    16    1
    28    14    17    1
    29    10     1   ar
    30     8     3   ar
    31    30    22   ar
    32    29    25   ar
    33    20    21    1
@<TRIPOS>MOLECULE
*****
 30 33 0 0 0
SMALL
GASTEIGER

@<TRIPOS>ATOM
      1 C         139.6181  142.9683  161.4631 C.ar    1  UNL1        0.1572
      2 C         138.5804  141.9878  161.0029 C.ar    1  UNL1        0.0575
      3 C         138.5808  140.5875  161.5407 C.ar    1  UNL1        0.0888
      4 N         137.5431  139.6070  161.0804 N.ar    1  UNL1       -0.2238
      5 C         137.5436  138.2068  161.6182 C.ar    1  UNL1        0.2000
      6 N         138.5818  137.7870  162.6162 N.ar    1  UNL1       -0.2089
      7 C         139.6195  138.7674  163.0764 C.ar    1  UNL1        0.1353
      8 C         139.6190  140.1677  162.5387 C.ar    1  UNL1        0.0509
      9 C         140.6568  141.1482  162.9989 C.ar    1  UNL1        0.0257
     10 C         140.6563  142.5485  162.4611 C.ar    1  UNL1        0.1395
     11 S         141.6940  143.5290  162.9213 S.O2    1  UNL1        0.0083
     12 O         142.5856  143.1178  161.7873 O.2     1  UNL1       -0.1686
     13 O         140.8025  143.9402  164.0553 O.2     1  UNL1       -0.1686
     14 C         142.7317  144.5095  163.3816 C.3     1  UNL1        0.1152
     15 C         143.8066  143.4989  163.1111 C.3     1  UNL1        0.0240
     16 C         141.6568  145.5201  163.6520 C.3     1  UNL1        0.0240
     17 C         143.7694  145.4900  163.8418 C.3     1  UNL1        0.0240
     18 C         140.1944  144.6516  159.5699 C.3     1  UNL1        0.2525
     19 O         139.6177  144.3686  160.9253 O.3     1  UNL1       -0.4701
     20 N         140.6576  138.3476  164.0744 N.pl3   1  UNL1       -0.2978
     21 H         141.3670  137.7176  163.8114 H       1  UNL1        0.1536
     22 C         140.6150  138.8876  165.4731 C.ar    1  UNL1        0.0509
     23 C         139.2977  139.2204  166.1089 C.ar    1  UNL1        0.0153
     24 C         139.2552  139.7605  167.5076 C.ar    1  UNL1        0.0093
     25 C         140.5298  139.9677  168.2707 C.ar    1  UNL1        0.0486
     26 S         140.7993  140.4809  169.6542 S.2     1  UNL1       -0.0645
     27 C         142.2831  140.4653  169.8735 C.ar    1  UNL1        0.1345
     28 N         142.9306  139.9425  168.6256 N.ar    1  UNL1       -0.2362
     29 C         141.8471  139.6350  167.6350 C.ar    1  UNL1        0.0892
     30 C         141.8897  139.0949  166.2362 C.ar    1  UNL1        0.0343
@<TRIPOS>BOND
     1    18    19    1
     2    19     1    1
     3     1     2   ar
     4     2     3   ar
     5     3     4   ar
     6     4     5   ar
     7     5     6   ar
     8     6     7   ar
     9     7    20    1
    10    20    22    1
    11    22    23   ar
    12    23    24   ar
    13    24    25   ar
    14    25    26   ar
    15    26    27   ar
    16    27    28   ar
    17    28    29   ar
    18    29    30   ar
    19     7     8   ar
    20     8     9   ar
    21     9    10   ar
    22    10    11    1
    23    11    12    2
    24    11    13    2
    25    11    14    1
    26    14    15    1
    27    14    16    1
    28    14    17    1
    29    10     1   ar
    30     8     3   ar
    31    30    22   ar
    32    29    25   ar
    33    20    21    1
@<TRIPOS>MOLECULE
*****
 30 33 0 0 0
SMALL
GASTEIGER

@<TRIPOS>ATOM
      1 C         140.3747  142.8961  167.5537 C.ar    1  UNL1        0.1572
      2 C         139.6478  143.8474  166.6500 C.ar    1  UNL1        0.0575
      3 C         138.9880  143.3402  165.4020 C.ar    1  UNL1        0.0888
      4 N         138.2611  144.2914  164.4982 N.ar    1  UNL1       -0.2238
      5 C         137.6013  143.7842  163.2503 C.ar    1  UNL1        0.2000
      6 N         137.6684  142.3258  162.9061 N.ar    1  UNL1       -0.2089
      7 C         138.3952  141.3745  163.8099 C.ar    1  UNL1        0.1353
      8 C         139.0550  141.8817  165.0578 C.ar    1  UNL1        0.0509
      9 C         139.7819  140.9305  165.9616 C.ar    1  UNL1        0.0257
     10 C         140.4417  141.4377  167.2096 C.ar    1  UNL1        0.1395
     11 S         141.1686  140.4864  168.1134 S.O2    1  UNL1        0.0083
     12 O         142.4606  140.8252  167.4309 O.2     1  UNL1       -0.1686
     13 O         139.8765  140.1477  168.7959 O.2     1  UNL1       -0.1686
     14 C         141.8954  139.5352  169.0172 C.3     1  UNL1        0.1152
     15 C         142.8307  139.1862  167.8977 C.3     1  UNL1        0.0240
     16 C         140.9600  139.8842  170.1367 C.3     1  UNL1        0.0240
     17 C         142.6222  138.5840  169.9210 C.3     1  UNL1        0.0240
     18 C         140.2145  143.6666  170.0298 C.3     1  UNL1        0.2525
     19 O         141.0345  143.4033  168.8017 O.3     1  UNL1       -0.4701
     20 N         138.4622  139.9161  163.4657 N.pl3   1  UNL1       -0.2978
     21 H         137.6617  139.3508  163.5598 H       1  UNL1        0.1536
     22 C         139.7489  139.3189  162.9782 C.ar    1  UNL1        0.0509
     23 C         140.1359  137.9302  163.3930 C.ar    1  UNL1        0.0153
     24 C         141.4226  137.3330  162.9055 C.ar    1  UNL1        0.0093
     25 C         142.3224  138.1244  162.0033 C.ar    1  UNL1        0.0486
     26 S         143.6426  137.8020  161.3684 S.2     1  UNL1       -0.0645
     27 C         144.0716  138.9913  160.5612 C.ar    1  UNL1        0.1345
     28 N         143.0165  140.0488  160.6973 N.ar    1  UNL1       -0.2362
     29 C         141.9355  139.5130  161.5885 C.ar    1  UNL1        0.0892
     30 C         140.6488  140.1103  162.0760 C.ar    1  UNL1        0.0343
@<TRIPOS>BOND
     1    18    19    1
     2    19     1    1
     3     1     2   ar
     4     2     3   ar
     5     3     4   ar
     6     4     5   ar
     7     5     6   ar
     8     6     7   ar
     9     7    20    1
    10    20    22    1
    11    22    23   ar
    12    23    24   ar
    13    24    25   ar
    14    25    26   ar
    15    26    27   ar
    16    27    28   ar
    17    28    29   ar
    18    29    30   ar
    19     7     8   ar
    20     8     9   ar
    21     9    10   ar
    22    10    11    1
    23    11    12    2
    24    11    13    2
    25    11    14    1
    26    14    15    1
    27    14    16    1
    28    14    17    1
    29    10     1   ar
    30     8     3   ar
    31    30    22   ar
    32    29    25   ar
    33    20    21    1
@<TRIPOS>MOLECULE
*****
 30 33 0 0 0
SMALL
GASTEIGER

@<TRIPOS>ATOM
      1 C         138.8145  139.6318  166.7318 C.ar    1  UNL1        0.1572
      2 C         139.4415  140.0002  168.0437 C.ar    1  UNL1        0.0575
      3 C         140.6966  140.8213  168.0708 C.ar    1  UNL1        0.0888
      4 N         141.3236  141.1897  169.3826 N.ar    1  UNL1       -0.2238
      5 C         142.5786  142.0108  169.4097 C.ar    1  UNL1        0.2000
      6 N         143.2066  142.4635  168.1249 N.ar    1  UNL1       -0.2089
      7 C         142.5795  142.0951  166.8130 C.ar    1  UNL1        0.1353
      8 C         141.3246  141.2740  166.7860 C.ar    1  UNL1        0.0509
      9 C         140.6974  140.9056  165.4740 C.ar    1  UNL1        0.0257
     10 C         139.4425  140.0845  165.4470 C.ar    1  UNL1        0.1395
     11 S         138.8153  139.7161  164.1351 S.O2    1  UNL1        0.0083
     12 O         137.9276  140.9221  164.2207 O.2     1  UNL1       -0.1686
     13 O         139.7031  138.5100  164.0495 O.2     1  UNL1       -0.1686
     14 C         138.1883  139.3476  162.8232 C.3     1  UNL1        0.1152
     15 C         138.7118  137.9492  162.9657 C.3     1  UNL1        0.0240
     16 C         137.6648  140.7460  162.6807 C.3     1  UNL1        0.0240
     17 C         137.5612  138.9791  161.5114 C.3     1  UNL1        0.0240
     18 C         137.6420  137.3133  166.7356 C.3     1  UNL1        0.2525
     19 O         137.5594  138.8107  166.7047 O.3     1  UNL1       -0.4701
     20 N         143.2075  142.5478  165.5282 N.pl3   1  UNL1       -0.2978
     21 H         143.4418  143.4956  165.4020 H       1  UNL1        0.1536
     22 C         143.4784  141.5564  164.4357 C.ar    1  UNL1        0.0509
     23 C         144.1851  140.2706  164.7480 C.ar    1  UNL1        0.0153
     24 C         144.4560  139.2792  163.6554 C.ar    1  UNL1        0.0093
     25 C         144.0203  139.5734  162.2506 C.ar    1  UNL1        0.0486
     26 S         144.1481  138.7933  160.9758 S.2     1  UNL1       -0.0645
     27 C         143.5205  139.5969  159.8757 C.ar    1  UNL1        0.1345
     28 N         143.0047  140.8737  160.4706 N.ar    1  UNL1       -0.2362
     29 C         143.3136  140.8591  161.9383 C.ar    1  UNL1        0.0892
     30 C         143.0426  141.8506  163.0309 C.ar    1  UNL1        0.0343
@<TRIPOS>BOND
     1    18    19    1
     2    19     1    1
     3     1     2   ar
     4     2     3   ar
     5     3     4   ar
     6     4     5   ar
     7     5     6   ar
     8     6     7   ar
     9     7    20    1
    10    20    22    1
    11    22    23   ar
    12    23    24   ar
    13    24    25   ar
    14    25    26   ar
    15    26    27   ar
    16    27    28   ar
    17    28    29   ar
    18    29    30   ar
    19     7     8   ar
    20     8     9   ar
    21     9    10   ar
    22    10    11    1
    23    11    12    2
    24    11    13    2
    25    11    14    1
    26    14    15    1
    27    14    16    1
    28    14    17    1
    29    10     1   ar
    30     8     3   ar
    31    30    22   ar
    32    29    25   ar
    33    20    21    1
@<TRIPOS>MOLECULE
*****
 30 33 0 0 0
SMALL
GASTEIGER

@<TRIPOS>ATOM
      1 C         142.3519  140.6444  166.2448 C.ar    1  UNL1        0.1572
      2 C         143.4127  141.6633  165.9511 C.ar    1  UNL1        0.0575
      3 C         143.0800  142.8795  165.1384 C.ar    1  UNL1        0.0888
      4 N         144.1408  143.8985  164.8447 N.ar    1  UNL1       -0.2238
      5 C         143.8081  145.1146  164.0321 C.ar    1  UNL1        0.2000
      6 N         142.4146  145.3117  163.5132 N.ar    1  UNL1       -0.2089
      7 C         141.3538  144.2927  163.8069 C.ar    1  UNL1        0.1353
      8 C         141.6865  143.0766  164.6195 C.ar    1  UNL1        0.0509
      9 C         140.6257  142.0575  164.9133 C.ar    1  UNL1        0.0257
     10 C         140.9584  140.8415  165.7259 C.ar    1  UNL1        0.1395
     11 S         139.8976  139.8224  166.0197 S.O2    1  UNL1        0.0083
     12 O         140.2263  139.1113  164.7406 O.2     1  UNL1       -0.1686
     13 O         139.5688  140.5335  167.2989 O.2     1  UNL1       -0.1686
     14 C         138.8368  138.8034  166.3135 C.3     1  UNL1        0.1152
     15 C         138.5810  139.4525  167.6414 C.3     1  UNL1        0.0240
     16 C         139.0925  138.1543  164.9857 C.3     1  UNL1        0.0240
     17 C         137.7760  137.7844  166.6074 C.3     1  UNL1        0.0240
     18 C         143.5290  138.3388  166.4658 C.3     1  UNL1        0.2525
     19 O         142.6846  139.4282  167.0575 O.3     1  UNL1       -0.4701
     20 N         139.9602  144.4898  163.2881 N.pl3   1  UNL1       -0.2978
     21 H         139.3005  144.9852  163.8252 H       1  UNL1        0.1536
     22 C         139.5720  143.9322  161.9508 C.ar    1  UNL1        0.0509
     23 C         138.5804  142.8098  161.8654 C.ar    1  UNL1        0.0153
     24 C         138.1922  142.2522  160.5282 C.ar    1  UNL1        0.0093
     25 C         138.7954  142.8168  159.2763 C.ar    1  UNL1        0.0486
     26 S         138.6070  142.4739  157.8282 S.2     1  UNL1       -0.0645
     27 C         139.4822  143.3842  157.0186 C.ar    1  UNL1        0.1345
     28 N         140.2114  144.2898  157.9664 N.ar    1  UNL1       -0.2362
     29 C         139.7869  143.9391  159.3616 C.ar    1  UNL1        0.0892
     30 C         140.1752  144.4968  160.6989 C.ar    1  UNL1        0.0343
@<TRIPOS>BOND
     1    18    19    1
     2    19     1    1
     3     1     2   ar
     4     2     3   ar
     5     3     4   ar
     6     4     5   ar
     7     5     6   ar
     8     6     7   ar
     9     7    20    1
    10    20    22    1
    11    22    23   ar
    12    23    24   ar
    13    24    25   ar
    14    25    26   ar
    15    26    27   ar
    16    27    28   ar
    17    28    29   ar
    18    29    30   ar
    19     7     8   ar
    20     8     9   ar
    21     9    10   ar
    22    10    11    1
    23    11    12    2
    24    11    13    2
    25    11    14    1
    26    14    15    1
    27    14    16    1
    28    14    17    1
    29    10     1   ar
    30     8     3   ar
    31    30    22   ar
    32    29    25   ar
    33    20    21    1
