@<TRIPOS>MOLECULE
*****
 35 38 0 0 0
SMALL
GASTEIGER

@<TRIPOS>ATOM
      1 C         141.9942  138.8633  161.5925 C.ar    1  UNL1        0.2204
      2 N         140.7236  139.2442  160.8922 N.ar    1  UNL1       -0.2089
      3 C         140.5170  138.8665  159.4553 C.ar    1  UNL1        0.1402
      4 C         141.5810  138.1080  158.7187 C.ar    1  UNL1        0.1773
      5 C         142.8516  137.7271  159.4190 C.ar    1  UNL1        0.1402
      6 N         143.0582  138.1048  160.8559 N.ar    1  UNL1       -0.2089
      7 C         141.0242  137.0478  163.7750 C.3     1  UNL1        0.0233
      8 C         141.7158  138.3332  164.1207 C.3     1  UNL1        0.0955
      9 C         141.9225  138.7109  165.5575 C.3     1  UNL1        0.1149
     10 N         142.6141  139.9963  165.9032 N.pl3   1  UNL1       -0.2586
     11 C         143.0991  140.9040  164.8120 C.3     1  UNL1        0.1167
     12 C         142.8925  140.5263  163.3751 C.3     1  UNL1        0.1151
     13 N         142.2008  139.2409  163.0295 N.pl3   1  UNL1       -0.2764
     14 C         142.8207  140.3739  167.3401 C.ar    1  UNL1        0.3185
     15 N         142.9941  141.7666  167.8696 N.ar    1  UNL1       -0.1701
     16 C         143.1707  141.6786  169.3565 C.ar    1  UNL1        0.2766
     17 N         143.1065  140.2314  169.7461 N.ar    1  UNL1       -0.0499
     18 O         142.8902  139.4251  168.4999 O.2     1  UNL1       -0.3164
     19 C         143.3756  142.8347  170.2901 C.3     1  UNL1        0.4557
     20 F         143.5805  143.9908  171.2236 F       1  UNL1       -0.1631
     21 F         144.8591  142.7303  170.0937 F       1  UNL1       -0.1631
     22 F         141.8922  142.9390  170.4864 F       1  UNL1       -0.1631
     23 O         141.3743  137.7304  157.2818 O.3     1  UNL1       -0.4674
     24 C         142.4653  137.0320  156.5255 C.3     1  UNL1        0.2344
     25 C         142.4521  135.5374  156.3990 C.ar    1  UNL1        0.0486
     26 C         143.3904  134.7066  157.2233 C.ar    1  UNL1        0.0014
     27 C         143.3771  133.2120  157.0968 C.ar    1  UNL1        0.0007
     28 C         142.4255  132.5482  156.1461 C.ar    1  UNL1        0.0388
     29 C         141.4872  133.3790  155.3219 C.ar    1  UNL1        0.0302
     30 C         141.5004  134.8735  155.4483 C.ar    1  UNL1        0.1395
     31 F         140.5621  135.7043  154.6241 F       1  UNL1       -0.2044
     32 C         142.4122  131.0536  156.0196 C.3     1  UNL1        0.2827
     33 S         143.5343  130.2421  156.5962 S.O     1  UNL1        0.0405
     34 C         144.7297  129.9098  155.7532 C.3     1  UNL1        0.3201
     35 O         143.4611  129.7630  158.0157 O.co2   1  UNL1       -0.6809
@<TRIPOS>UNITY_ATOM_ATTR
33 1
charge 1
35 1
charge -1
@<TRIPOS>BOND
     1     8     7    1
     2     8     9    1
     3     9    10    1
     4    10    14    1
     5    14    15   ar
     6    15    16   ar
     7    16    19    1
     8    19    20    1
     9    19    21    1
    10    19    22    1
    11    16    17   ar
    12    17    18   ar
    13    10    11    1
    14    11    12    1
    15    12    13    1
    16    13     1    1
    17     1     2   ar
    18     2     3   ar
    19     3     4   ar
    20     4    23    1
    21    23    24    1
    22    24    25    1
    23    25    26   ar
    24    26    27   ar
    25    27    28   ar
    26    28    32    1
    27    32    33    1
    28    33    34    1
    29    33    35    2
    30    28    29   ar
    31    29    30   ar
    32    30    31    1
    33     4     5   ar
    34     5     6   ar
    35    13     8    1
    36     6     1   ar
    37    18    14   ar
    38    30    25   ar
@<TRIPOS>MOLECULE
*****
 35 38 0 0 0
SMALL
GASTEIGER

@<TRIPOS>ATOM
      1 C         139.1222  142.4533  160.3715 C.ar    1  UNL1        0.2204
      2 N         140.0822  141.3326  160.6407 N.ar    1  UNL1       -0.2089
      3 C         139.8491  140.4071  161.7978 C.ar    1  UNL1        0.1402
      4 C         138.6561  140.6023  162.6859 C.ar    1  UNL1        0.1773
      5 C         137.6961  141.7230  162.4168 C.ar    1  UNL1        0.1402
      6 N         137.9292  142.6485  161.2595 N.ar    1  UNL1       -0.2089
      7 C         140.5526  145.0558  160.7966 C.3     1  UNL1        0.0233
      8 C         140.0705  144.6800  159.4268 C.3     1  UNL1        0.0955
      9 C         140.3035  145.6055  158.2696 C.3     1  UNL1        0.1149
     10 N         139.8214  145.2297  156.8998 N.pl3   1  UNL1       -0.2586
     11 C         139.1062  143.9285  156.6872 C.3     1  UNL1        0.1167
     12 C         138.8731  143.0030  157.8445 C.3     1  UNL1        0.1151
     13 N         139.3553  143.3788  159.2142 N.pl3   1  UNL1       -0.2764
     14 C         140.0545  146.1552  155.7426 C.ar    1  UNL1        0.3185
     15 N         139.4422  147.5126  155.5620 N.ar    1  UNL1       -0.1701
     16 C         139.9501  148.0821  154.2706 C.ar    1  UNL1        0.2766
     17 N         140.8763  147.0766  153.6530 N.ar    1  UNL1       -0.0499
     18 O         140.9408  145.8858  154.5627 O.2     1  UNL1       -0.3164
     19 C         139.5943  149.4218  153.6973 C.3     1  UNL1        0.4557
     20 F         139.2384  150.7615  153.1241 F       1  UNL1       -0.1631
     21 F         138.9646  149.8126  155.0015 F       1  UNL1       -0.1631
     22 F         140.2239  149.0310  152.3931 F       1  UNL1       -0.1631
     23 O         138.4231  139.6768  163.8431 O.3     1  UNL1       -0.4674
     24 C         139.5871  139.0218  164.5258 C.3     1  UNL1        0.2344
     25 C         139.9705  139.4346  165.9160 C.ar    1  UNL1        0.0486
     26 C         141.3954  139.7839  166.2285 C.ar    1  UNL1        0.0014
     27 C         141.7788  140.1967  167.6187 C.ar    1  UNL1        0.0007
     28 C         140.7373  140.2602  168.6963 C.ar    1  UNL1        0.0388
     29 C         139.3124  139.9110  168.3838 C.ar    1  UNL1        0.0302
     30 C         138.9290  139.4981  166.9936 C.ar    1  UNL1        0.1395
     31 F         137.5041  139.1489  166.6811 F       1  UNL1       -0.2044
     32 C         141.1207  140.6731  170.0865 C.3     1  UNL1        0.2827
     33 S         140.6953  142.0105  170.6159 S.O     1  UNL1        0.0405
     34 C         140.5323  143.1707  169.6791 C.3     1  UNL1        0.3201
     35 O         140.4330  142.1879  172.0820 O.co2   1  UNL1       -0.6809
@<TRIPOS>UNITY_ATOM_ATTR
33 1
charge 1
35 1
charge -1
@<TRIPOS>BOND
     1     8     7    1
     2     8     9    1
     3     9    10    1
     4    10    14    1
     5    14    15   ar
     6    15    16   ar
     7    16    19    1
     8    19    20    1
     9    19    21    1
    10    19    22    1
    11    16    17   ar
    12    17    18   ar
    13    10    11    1
    14    11    12    1
    15    12    13    1
    16    13     1    1
    17     1     2   ar
    18     2     3   ar
    19     3     4   ar
    20     4    23    1
    21    23    24    1
    22    24    25    1
    23    25    26   ar
    24    26    27   ar
    25    27    28   ar
    26    28    32    1
    27    32    33    1
    28    33    34    1
    29    33    35    2
    30    28    29   ar
    31    29    30   ar
    32    30    31    1
    33     4     5   ar
    34     5     6   ar
    35    13     8    1
    36     6     1   ar
    37    18    14   ar
    38    30    25   ar
@<TRIPOS>MOLECULE
*****
 35 38 0 0 0
SMALL
GASTEIGER

@<TRIPOS>ATOM
      1 C         142.3506  141.7815  161.7754 C.ar    1  UNL1        0.2204
      2 N         142.8104  142.4490  163.0375 N.ar    1  UNL1       -0.2089
      3 C         143.3908  141.6288  164.1511 C.ar    1  UNL1        0.1402
      4 C         143.5115  140.1410  164.0027 C.ar    1  UNL1        0.1773
      5 C         143.0517  139.4735  162.7406 C.ar    1  UNL1        0.1402
      6 N         142.4712  140.2938  161.6269 N.ar    1  UNL1       -0.2089
      7 C         139.3826  142.1801  161.5955 C.3     1  UNL1        0.0233
      8 C         140.2861  142.8011  160.5717 C.3     1  UNL1        0.0955
      9 C         139.7057  143.6213  159.4581 C.3     1  UNL1        0.1149
     10 N         140.6093  144.2422  158.4343 N.pl3   1  UNL1       -0.2586
     11 C         142.0932  144.0429  158.5242 C.3     1  UNL1        0.1167
     12 C         142.6736  143.2227  159.6379 C.3     1  UNL1        0.1151
     13 N         141.7701  142.6018  160.6616 N.pl3   1  UNL1       -0.2764
     14 C         140.0288  145.0625  157.3206 C.ar    1  UNL1        0.3185
     15 N         139.8728  146.5543  157.3131 N.ar    1  UNL1       -0.1701
     16 C         139.2500  146.9487  156.0068 C.ar    1  UNL1        0.2766
     17 N         139.0210  145.7006  155.2069 N.ar    1  UNL1       -0.0499
     18 O         139.5024  144.5349  156.0189 O.2     1  UNL1       -0.3164
     19 C         138.9150  148.3460  155.5760 C.3     1  UNL1        0.4557
     20 F         138.5799  149.7432  155.1452 F       1  UNL1       -0.1631
     21 F         138.4635  148.6675  156.9698 F       1  UNL1       -0.1631
     22 F         139.3665  148.0244  154.1821 F       1  UNL1       -0.1631
     23 O         144.0920  139.3208  165.1164 O.3     1  UNL1       -0.4674
     24 C         143.1905  138.5086  165.9982 C.3     1  UNL1        0.2344
     25 C         142.3063  139.1914  166.9991 C.ar    1  UNL1        0.0486
     26 C         142.7402  139.3026  168.4306 C.ar    1  UNL1        0.0014
     27 C         141.8558  139.9855  169.4315 C.ar    1  UNL1        0.0007
     28 C         140.5377  140.5572  169.0008 C.ar    1  UNL1        0.0388
     29 C         140.1038  140.4461  167.5692 C.ar    1  UNL1        0.0302
     30 C         140.9880  139.7632  166.5684 C.ar    1  UNL1        0.1395
     31 F         140.5541  139.6520  165.1368 F       1  UNL1       -0.2044
     32 C         139.6534  141.2401  170.0016 C.3     1  UNL1        0.2827
     33 S         139.8948  142.6769  170.3586 S.O     1  UNL1        0.0405
     34 C         140.9825  143.4479  169.6712 C.3     1  UNL1        0.3201
     35 O         139.0485  143.3426  171.4029 O.co2   1  UNL1       -0.6809
@<TRIPOS>UNITY_ATOM_ATTR
33 1
charge 1
35 1
charge -1
@<TRIPOS>BOND
     1     8     7    1
     2     8     9    1
     3     9    10    1
     4    10    14    1
     5    14    15   ar
     6    15    16   ar
     7    16    19    1
     8    19    20    1
     9    19    21    1
    10    19    22    1
    11    16    17   ar
    12    17    18   ar
    13    10    11    1
    14    11    12    1
    15    12    13    1
    16    13     1    1
    17     1     2   ar
    18     2     3   ar
    19     3     4   ar
    20     4    23    1
    21    23    24    1
    22    24    25    1
    23    25    26   ar
    24    26    27   ar
    25    27    28   ar
    26    28    32    1
    27    32    33    1
    28    33    34    1
    29    33    35    2
    30    28    29   ar
    31    29    30   ar
    32    30    31    1
    33     4     5   ar
    34     5     6   ar
    35    13     8    1
    36     6     1   ar
    37    18    14   ar
    38    30    25   ar
@<TRIPOS>MOLECULE
*****
 35 38 0 0 0
SMALL
GASTEIGER

@<TRIPOS>ATOM
      1 C         139.3322  142.7444  160.5167 C.ar    1  UNL1        0.2204
      2 N         138.0643  142.8229  161.3144 N.ar    1  UNL1       -0.2089
      3 C         137.8728  141.9346  162.5077 C.ar    1  UNL1        0.1402
      4 C         138.9492  140.9677  162.9035 C.ar    1  UNL1        0.1773
      5 C         140.2171  140.8892  162.1058 C.ar    1  UNL1        0.1402
      6 N         140.4086  141.7776  160.9124 N.ar    1  UNL1       -0.2089
      7 C         138.3759  141.8552  157.8158 C.3     1  UNL1        0.0233
      8 C         139.0455  143.1882  157.9729 C.3     1  UNL1        0.0955
      9 C         139.2370  144.0766  156.7796 C.3     1  UNL1        0.1149
     10 N         139.9066  145.4096  156.9366 N.pl3   1  UNL1       -0.2586
     11 C         140.3848  145.8542  158.2870 C.3     1  UNL1        0.1167
     12 C         140.1933  144.9658  159.4804 C.3     1  UNL1        0.1151
     13 N         139.5237  143.6328  159.3233 N.pl3   1  UNL1       -0.2764
     14 C         140.0981  146.2980  155.7432 C.ar    1  UNL1        0.3185
     15 N         139.5057  147.6633  155.5563 N.ar    1  UNL1       -0.1701
     16 C         139.9570  148.1861  154.2248 C.ar    1  UNL1        0.2766
     17 N         140.8285  147.1439  153.5887 N.ar    1  UNL1       -0.0499
     18 O         140.9156  145.9770  154.5272 O.2     1  UNL1       -0.3164
     19 C         139.5997  149.5174  153.6331 C.3     1  UNL1        0.4557
     20 F         139.2425  150.8487  153.0415 F       1  UNL1       -0.1631
     21 F         139.0544  149.9601  154.9585 F       1  UNL1       -0.1631
     22 F         140.1451  149.0747  152.3077 F       1  UNL1       -0.1631
     23 O         138.7577  140.0794  164.0969 O.3     1  UNL1       -0.4674
     24 C         139.9329  139.3665  164.6974 C.3     1  UNL1        0.2344
     25 C         140.3013  139.6042  166.1319 C.ar    1  UNL1        0.0486
     26 C         139.2351  139.9261  167.1367 C.ar    1  UNL1        0.0014
     27 C         139.6036  140.1638  168.5712 C.ar    1  UNL1        0.0007
     28 C         141.0383  140.0797  169.0009 C.ar    1  UNL1        0.0388
     29 C         142.1045  139.7578  167.9961 C.ar    1  UNL1        0.0302
     30 C         141.7361  139.5201  166.5616 C.ar    1  UNL1        0.1395
     31 F         142.8023  139.1982  165.5569 F       1  UNL1       -0.2044
     32 C         141.4067  140.3174  170.4353 C.3     1  UNL1        0.2827
     33 S         141.4845  141.7177  170.9675 S.O     1  UNL1        0.0405
     34 C         142.4304  142.7038  170.3487 C.3     1  UNL1        0.3201
     35 O         140.6164  142.1318  172.1185 O.co2   1  UNL1       -0.6809
@<TRIPOS>UNITY_ATOM_ATTR
33 1
charge 1
35 1
charge -1
@<TRIPOS>BOND
     1     8     7    1
     2     8     9    1
     3     9    10    1
     4    10    14    1
     5    14    15   ar
     6    15    16   ar
     7    16    19    1
     8    19    20    1
     9    19    21    1
    10    19    22    1
    11    16    17   ar
    12    17    18   ar
    13    10    11    1
    14    11    12    1
    15    12    13    1
    16    13     1    1
    17     1     2   ar
    18     2     3   ar
    19     3     4   ar
    20     4    23    1
    21    23    24    1
    22    24    25    1
    23    25    26   ar
    24    26    27   ar
    25    27    28   ar
    26    28    32    1
    27    32    33    1
    28    33    34    1
    29    33    35    2
    30    28    29   ar
    31    29    30   ar
    32    30    31    1
    33     4     5   ar
    34     5     6   ar
    35    13     8    1
    36     6     1   ar
    37    18    14   ar
    38    30    25   ar
@<TRIPOS>MOLECULE
*****
 35 38 0 0 0
SMALL
GASTEIGER

@<TRIPOS>ATOM
      1 C         141.5596  143.5914  159.6584 C.ar    1  UNL1        0.2204
      2 N         141.5811  144.9070  160.3786 N.ar    1  UNL1       -0.2089
      3 C         140.4637  145.2699  161.3112 C.ar    1  UNL1        0.1402
      4 C         139.3247  144.3172  161.5236 C.ar    1  UNL1        0.1773
      5 C         139.3032  143.0015  160.8033 C.ar    1  UNL1        0.1402
      6 N         140.4207  142.6387  159.8708 N.ar    1  UNL1       -0.2089
      7 C         144.1732  142.6120  160.7585 C.3     1  UNL1        0.0233
      8 C         143.9838  142.7388  159.2759 C.3     1  UNL1        0.0955
      9 C         145.1012  142.3760  158.3433 C.3     1  UNL1        0.1149
     10 N         144.9119  142.5028  156.8607 N.pl3   1  UNL1       -0.2586
     11 C         143.6051  142.9925  156.3107 C.3     1  UNL1        0.1167
     12 C         142.4877  143.3554  157.2433 C.3     1  UNL1        0.1151
     13 N         142.6771  143.2285  158.7259 N.pl3   1  UNL1       -0.2764
     14 C         146.0294  142.1400  155.9282 C.ar    1  UNL1        0.3185
     15 N         147.4955  142.2824  156.2113 N.ar    1  UNL1       -0.1701
     16 C         148.2491  141.8014  155.0069 C.ar    1  UNL1        0.2766
     17 N         147.2487  141.3617  153.9792 N.ar    1  UNL1       -0.0499
     18 O         145.8768  141.5710  154.5487 O.2     1  UNL1       -0.3164
     19 C         149.7411  141.7663  154.8564 C.3     1  UNL1        0.4557
     20 F         151.2332  141.7312  154.7060 F       1  UNL1       -0.1631
     21 F         149.8956  142.0642  156.3184 F       1  UNL1       -0.1631
     22 F         149.5867  141.4685  153.3944 F       1  UNL1       -0.1631
     23 O         138.2073  144.6801  162.4561 O.3     1  UNL1       -0.4674
     24 C         137.5753  143.6256  163.3155 C.3     1  UNL1        0.2344
     25 C         138.3664  142.9802  164.4144 C.ar    1  UNL1        0.0486
     26 C         138.2509  141.5040  164.6544 C.ar    1  UNL1        0.0014
     27 C         139.0420  140.8587  165.7534 C.ar    1  UNL1        0.0007
     28 C         139.9486  141.6895  166.6124 C.ar    1  UNL1        0.0388
     29 C         140.0640  143.1657  166.3724 C.ar    1  UNL1        0.0302
     30 C         139.2729  143.8111  165.2735 C.ar    1  UNL1        0.1395
     31 F         139.3884  145.2872  165.0336 F       1  UNL1       -0.2044
     32 C         140.7396  141.0442  167.7113 C.3     1  UNL1        0.2827
     33 S         140.1782  140.9787  169.1007 S.O     1  UNL1        0.0405
     34 C         140.0381  142.2321  169.9128 C.3     1  UNL1        0.3201
     35 O         139.7569  139.6600  169.6781 O.co2   1  UNL1       -0.6809
@<TRIPOS>UNITY_ATOM_ATTR
33 1
charge 1
35 1
charge -1
@<TRIPOS>BOND
     1     8     7    1
     2     8     9    1
     3     9    10    1
     4    10    14    1
     5    14    15   ar
     6    15    16   ar
     7    16    19    1
     8    19    20    1
     9    19    21    1
    10    19    22    1
    11    16    17   ar
    12    17    18   ar
    13    10    11    1
    14    11    12    1
    15    12    13    1
    16    13     1    1
    17     1     2   ar
    18     2     3   ar
    19     3     4   ar
    20     4    23    1
    21    23    24    1
    22    24    25    1
    23    25    26   ar
    24    26    27   ar
    25    27    28   ar
    26    28    32    1
    27    32    33    1
    28    33    34    1
    29    33    35    2
    30    28    29   ar
    31    29    30   ar
    32    30    31    1
    33     4     5   ar
    34     5     6   ar
    35    13     8    1
    36     6     1   ar
    37    18    14   ar
    38    30    25   ar
@<TRIPOS>MOLECULE
*****
 35 38 0 0 0
SMALL
GASTEIGER

@<TRIPOS>ATOM
      1 C         140.8608  138.5402  160.9552 C.ar    1  UNL1        0.2204
      2 N         142.2713  138.2292  160.5507 N.ar    1  UNL1       -0.2089
      3 C         142.6035  137.9965  159.1066 C.ar    1  UNL1        0.1402
      4 C         141.5251  138.0748  158.0669 C.ar    1  UNL1        0.1773
      5 C         140.1146  138.3859  158.4713 C.ar    1  UNL1        0.1402
      6 N         139.7824  138.6186  159.9155 N.ar    1  UNL1       -0.2089
      7 C         140.9802  141.3131  162.0939 C.3     1  UNL1        0.0233
      8 C         140.5883  140.1593  162.9687 C.3     1  UNL1        0.0955
      9 C         140.2562  140.3920  164.4128 C.3     1  UNL1        0.1149
     10 N         139.8643  139.2382  165.2876 N.pl3   1  UNL1       -0.2586
     11 C         139.8046  137.8518  164.7182 C.3     1  UNL1        0.1167
     12 C         140.1368  137.6191  163.2741 C.3     1  UNL1        0.1151
     13 N         140.5286  138.7729  162.3993 N.pl3   1  UNL1       -0.2764
     14 C         139.5321  139.4709  166.7318 C.ar    1  UNL1        0.3185
     15 N         140.3887  140.1947  167.7279 N.ar    1  UNL1       -0.1701
     16 C         139.6710  140.1917  169.0451 C.ar    1  UNL1        0.2766
     17 N         138.3709  139.4661  168.8630 N.ar    1  UNL1       -0.0499
     18 O         138.2851  139.0206  167.4333 O.2     1  UNL1       -0.3164
     19 C         140.1665  140.8065  170.3205 C.3     1  UNL1        0.4557
     20 F         140.6619  141.4213  171.5959 F       1  UNL1       -0.1631
     21 F         141.0397  139.6102  170.5580 F       1  UNL1       -0.1631
     22 F         139.2933  142.0029  170.0830 F       1  UNL1       -0.1631
     23 O         141.8573  137.8421  156.6228 O.3     1  UNL1       -0.4674
     24 C         143.0793  137.0554  156.2516 C.3     1  UNL1        0.2344
     25 C         142.9528  135.6122  155.8631 C.ar    1  UNL1        0.0486
     26 C         142.6856  135.2407  154.4346 C.ar    1  UNL1        0.0014
     27 C         142.5591  133.7973  154.0461 C.ar    1  UNL1        0.0007
     28 C         142.6997  132.7256  155.0861 C.ar    1  UNL1        0.0388
     29 C         142.9669  133.0971  156.5146 C.ar    1  UNL1        0.0302
     30 C         143.0934  134.5403  156.9031 C.ar    1  UNL1        0.1395
     31 F         143.3605  134.9119  158.3316 F       1  UNL1       -0.2044
     32 C         142.5732  131.2824  154.6976 C.3     1  UNL1        0.2827
     33 S         143.7308  130.5731  154.0597 S.O     1  UNL1        0.0405
     34 C         143.7586  130.3685  152.5739 C.3     1  UNL1        0.3201
     35 O         144.8605  130.0684  154.9075 O.co2   1  UNL1       -0.6809
@<TRIPOS>UNITY_ATOM_ATTR
33 1
charge 1
35 1
charge -1
@<TRIPOS>BOND
     1     8     7    1
     2     8     9    1
     3     9    10    1
     4    10    14    1
     5    14    15   ar
     6    15    16   ar
     7    16    19    1
     8    19    20    1
     9    19    21    1
    10    19    22    1
    11    16    17   ar
    12    17    18   ar
    13    10    11    1
    14    11    12    1
    15    12    13    1
    16    13     1    1
    17     1     2   ar
    18     2     3   ar
    19     3     4   ar
    20     4    23    1
    21    23    24    1
    22    24    25    1
    23    25    26   ar
    24    26    27   ar
    25    27    28   ar
    26    28    32    1
    27    32    33    1
    28    33    34    1
    29    33    35    2
    30    28    29   ar
    31    29    30   ar
    32    30    31    1
    33     4     5   ar
    34     5     6   ar
    35    13     8    1
    36     6     1   ar
    37    18    14   ar
    38    30    25   ar
@<TRIPOS>MOLECULE
*****
 35 38 0 0 0
SMALL
GASTEIGER

@<TRIPOS>ATOM
      1 C         138.9297  141.3948  159.6684 C.ar    1  UNL1        0.2204
      2 N         137.9044  141.4730  160.7604 N.ar    1  UNL1       -0.2089
      3 C         137.7062  140.3107  161.6877 C.ar    1  UNL1        0.1402
      4 C         138.5333  139.0702  161.5229 C.ar    1  UNL1        0.1773
      5 C         139.5587  138.9921  160.4308 C.ar    1  UNL1        0.1402
      6 N         139.7569  140.1544  159.5036 N.ar    1  UNL1       -0.2089
      7 C         140.5658  143.7515  160.5455 C.3     1  UNL1        0.0233
      8 C         139.9459  143.7355  159.1797 C.3     1  UNL1        0.0955
      9 C         140.1441  144.8977  158.2525 C.3     1  UNL1        0.1149
     10 N         139.5242  144.8817  156.8866 N.pl3   1  UNL1       -0.2586
     11 C         138.7062  143.7034  156.4480 C.3     1  UNL1        0.1167
     12 C         138.5080  142.5411  157.3753 C.3     1  UNL1        0.1151
     13 N         139.1279  142.5572  158.7411 N.pl3   1  UNL1       -0.2764
     14 C         139.7224  146.0440  155.9594 C.ar    1  UNL1        0.3185
     15 N         139.1052  147.4034  156.1051 N.ar    1  UNL1       -0.1701
     16 C         139.5740  148.2505  154.9594 C.ar    1  UNL1        0.2766
     17 N         140.4809  147.4147  154.1055 N.ar    1  UNL1       -0.0499
     18 O         140.5726  146.0510  154.7236 O.2     1  UNL1       -0.3164
     19 C         139.2013  149.6821  154.7111 C.3     1  UNL1        0.4557
     20 F         138.8286  151.1137  154.4628 F       1  UNL1       -0.1631
     21 F         140.1653  149.7340  153.5631 F       1  UNL1       -0.1631
     22 F         138.2372  149.6303  155.8591 F       1  UNL1       -0.1631
     23 O         138.3351  137.9080  162.4501 O.3     1  UNL1       -0.4674
     24 C         139.3815  137.5775  163.4728 C.3     1  UNL1        0.2344
     25 C         139.4914  138.3960  164.7249 C.ar    1  UNL1        0.0486
     26 C         138.4319  138.2957  165.7820 C.ar    1  UNL1        0.0014
     27 C         138.5418  139.1143  167.0342 C.ar    1  UNL1        0.0007
     28 C         139.7112  140.0332  167.2292 C.ar    1  UNL1        0.0388
     29 C         140.7707  140.1335  166.1722 C.ar    1  UNL1        0.0302
     30 C         140.6608  139.3150  164.9201 C.ar    1  UNL1        0.1395
     31 F         141.7203  139.4153  163.8630 F       1  UNL1       -0.2044
     32 C         139.8211  140.8518  168.4813 C.3     1  UNL1        0.2827
     33 S         140.0462  140.1763  169.8016 S.O     1  UNL1        0.0405
     34 C         141.4397  139.8416  170.2449 C.3     1  UNL1        0.3201
     35 O         138.8780  139.8357  170.6786 O.co2   1  UNL1       -0.6809
@<TRIPOS>UNITY_ATOM_ATTR
33 1
charge 1
35 1
charge -1
@<TRIPOS>BOND
     1     8     7    1
     2     8     9    1
     3     9    10    1
     4    10    14    1
     5    14    15   ar
     6    15    16   ar
     7    16    19    1
     8    19    20    1
     9    19    21    1
    10    19    22    1
    11    16    17   ar
    12    17    18   ar
    13    10    11    1
    14    11    12    1
    15    12    13    1
    16    13     1    1
    17     1     2   ar
    18     2     3   ar
    19     3     4   ar
    20     4    23    1
    21    23    24    1
    22    24    25    1
    23    25    26   ar
    24    26    27   ar
    25    27    28   ar
    26    28    32    1
    27    32    33    1
    28    33    34    1
    29    33    35    2
    30    28    29   ar
    31    29    30   ar
    32    30    31    1
    33     4     5   ar
    34     5     6   ar
    35    13     8    1
    36     6     1   ar
    37    18    14   ar
    38    30    25   ar
@<TRIPOS>MOLECULE
*****
 35 38 0 0 0
SMALL
GASTEIGER

@<TRIPOS>ATOM
      1 C         139.6416  141.4340  159.4268 C.ar    1  UNL1        0.2204
      2 N         138.3449  140.8856  159.9444 N.ar    1  UNL1       -0.2089
      3 C         138.3336  139.6184  160.7468 C.ar    1  UNL1        0.1402
      4 C         139.6190  138.8994  161.0316 C.ar    1  UNL1        0.1773
      5 C         140.9156  139.4478  160.5140 C.ar    1  UNL1        0.1402
      6 N         140.9269  140.7152  159.7116 N.ar    1  UNL1       -0.2089
      7 C         138.8287  141.3887  156.5394 C.3     1  UNL1        0.0233
      8 C         139.2465  142.6787  157.1807 C.3     1  UNL1        0.0955
      9 C         139.2578  143.9460  156.3784 C.3     1  UNL1        0.1149
     10 N         139.6755  145.2360  157.0198 N.pl3   1  UNL1       -0.2586
     11 C         140.0820  145.2587  158.4634 C.3     1  UNL1        0.1167
     12 C         140.0707  143.9914  159.2657 C.3     1  UNL1        0.1151
     13 N         139.6529  142.7014  158.6244 N.pl3   1  UNL1       -0.2764
     14 C         139.6868  146.5033  156.2173 C.ar    1  UNL1        0.3185
     15 N         138.8887  147.7392  156.5099 N.ar    1  UNL1       -0.1701
     16 C         139.2069  148.7569  155.4549 C.ar    1  UNL1        0.2766
     17 N         140.2016  148.1500  154.5103 N.ar    1  UNL1       -0.0499
     18 O         140.4982  146.7572  154.9815 O.2     1  UNL1       -0.3164
     19 C         138.6313  150.1390  155.3609 C.3     1  UNL1        0.4557
     20 F         138.0558  151.5210  155.2669 F       1  UNL1       -0.1631
     21 F         138.2057  150.0594  156.7971 F       1  UNL1       -0.1631
     22 F         139.0570  150.2186  153.9247 F       1  UNL1       -0.1631
     23 O         139.6076  137.6322  161.8340 O.3     1  UNL1       -0.4674
     24 C         139.1151  137.6459  163.2507 C.3     1  UNL1        0.2344
     25 C         139.9814  138.2041  164.3406 C.ar    1  UNL1        0.0486
     26 C         141.4239  137.8031  164.4316 C.ar    1  UNL1        0.0014
     27 C         142.2902  138.3614  165.5215 C.ar    1  UNL1        0.0007
     28 C         141.7140  139.3206  166.5204 C.ar    1  UNL1        0.0388
     29 C         140.2715  139.7216  166.4294 C.ar    1  UNL1        0.0302
     30 C         139.4052  139.1634  165.3395 C.ar    1  UNL1        0.1395
     31 F         137.9626  139.5644  165.2486 F       1  UNL1       -0.2044
     32 C         142.5803  139.8789  167.6102 C.3     1  UNL1        0.2827
     33 S         142.3458  139.4751  169.0357 S.O     1  UNL1        0.0405
     34 C         141.3444  140.2172  169.8704 C.3     1  UNL1        0.3201
     35 O         143.1126  138.3293  169.6265 O.co2   1  UNL1       -0.6809
@<TRIPOS>UNITY_ATOM_ATTR
33 1
charge 1
35 1
charge -1
@<TRIPOS>BOND
     1     8     7    1
     2     8     9    1
     3     9    10    1
     4    10    14    1
     5    14    15   ar
     6    15    16   ar
     7    16    19    1
     8    19    20    1
     9    19    21    1
    10    19    22    1
    11    16    17   ar
    12    17    18   ar
    13    10    11    1
    14    11    12    1
    15    12    13    1
    16    13     1    1
    17     1     2   ar
    18     2     3   ar
    19     3     4   ar
    20     4    23    1
    21    23    24    1
    22    24    25    1
    23    25    26   ar
    24    26    27   ar
    25    27    28   ar
    26    28    32    1
    27    32    33    1
    28    33    34    1
    29    33    35    2
    30    28    29   ar
    31    29    30   ar
    32    30    31    1
    33     4     5   ar
    34     5     6   ar
    35    13     8    1
    36     6     1   ar
    37    18    14   ar
    38    30    25   ar
@<TRIPOS>MOLECULE
*****
 35 38 0 0 0
SMALL
GASTEIGER

@<TRIPOS>ATOM
      1 C         141.5068  143.6434  159.8559 C.ar    1  UNL1        0.2204
      2 N         140.3965  142.6720  160.1271 N.ar    1  UNL1       -0.2089
      3 C         139.2859  143.0449  161.0638 C.ar    1  UNL1        0.1402
      4 C         139.2856  144.3892  161.7294 C.ar    1  UNL1        0.1773
      5 C         140.3959  145.3606  161.4581 C.ar    1  UNL1        0.1402
      6 N         141.5066  144.9877  160.5214 N.ar    1  UNL1       -0.2089
      7 C         144.1059  142.6144  160.9450 C.3     1  UNL1        0.0233
      8 C         143.9170  142.7560  159.4637 C.3     1  UNL1        0.0955
      9 C         145.0275  142.3831  158.5269 C.3     1  UNL1        0.1149
     10 N         144.8386  142.5247  157.0456 N.pl3   1  UNL1       -0.2586
     11 C         143.5391  143.0391  156.5011 C.3     1  UNL1        0.1167
     12 C         142.4286  143.4120  157.4378 C.3     1  UNL1        0.1151
     13 N         142.6175  143.2705  158.9191 N.pl3   1  UNL1       -0.2764
     14 C         145.9493  142.1517  156.1089 C.ar    1  UNL1        0.3185
     15 N         147.4177  142.2773  156.3880 N.ar    1  UNL1       -0.1701
     16 C         148.1624  141.7909  155.1802 C.ar    1  UNL1        0.2766
     17 N         147.1542  141.3647  154.1545 N.ar    1  UNL1       -0.0499
     18 O         145.7864  141.5877  154.7285 O.2     1  UNL1       -0.3164
     19 C         149.6535  141.7397  155.0252 C.3     1  UNL1        0.4557
     20 F         151.1446  141.6885  154.8702 F       1  UNL1       -0.1631
     21 F         149.4905  141.3491  153.5861 F       1  UNL1       -0.1631
     22 F         149.8165  142.1304  156.4642 F       1  UNL1       -0.1631
     23 O         138.1750  144.7621  162.6661 O.3     1  UNL1       -0.4674
     24 C         138.3797  144.6643  164.1488 C.3     1  UNL1        0.2344
     25 C         138.9367  143.4069  164.7477 C.ar    1  UNL1        0.0486
     26 C         140.1537  143.4679  165.6224 C.ar    1  UNL1        0.0014
     27 C         140.7107  142.2104  166.2213 C.ar    1  UNL1        0.0007
     28 C         140.0507  140.8920  165.9454 C.ar    1  UNL1        0.0388
     29 C         138.8338  140.8310  165.0706 C.ar    1  UNL1        0.0302
     30 C         138.2768  142.0884  164.4717 C.ar    1  UNL1        0.1395
     31 F         137.0598  142.0274  163.5970 F       1  UNL1       -0.2044
     32 C         140.6078  139.6346  166.5442 C.3     1  UNL1        0.2827
     33 S         142.0874  139.4903  166.7435 S.O     1  UNL1        0.0405
     34 C         142.9891  139.3043  165.5593 C.3     1  UNL1        0.3201
     35 O         142.6654  139.5320  168.1270 O.co2   1  UNL1       -0.6809
@<TRIPOS>UNITY_ATOM_ATTR
33 1
charge 1
35 1
charge -1
@<TRIPOS>BOND
     1     8     7    1
     2     8     9    1
     3     9    10    1
     4    10    14    1
     5    14    15   ar
     6    15    16   ar
     7    16    19    1
     8    19    20    1
     9    19    21    1
    10    19    22    1
    11    16    17   ar
    12    17    18   ar
    13    10    11    1
    14    11    12    1
    15    12    13    1
    16    13     1    1
    17     1     2   ar
    18     2     3   ar
    19     3     4   ar
    20     4    23    1
    21    23    24    1
    22    24    25    1
    23    25    26   ar
    24    26    27   ar
    25    27    28   ar
    26    28    32    1
    27    32    33    1
    28    33    34    1
    29    33    35    2
    30    28    29   ar
    31    29    30   ar
    32    30    31    1
    33     4     5   ar
    34     5     6   ar
    35    13     8    1
    36     6     1   ar
    37    18    14   ar
    38    30    25   ar
