@<TRIPOS>MOLECULE
*****
 43 47 0 0 0
SMALL
GASTEIGER

@<TRIPOS>ATOM
      1 C         143.4373  142.1771  162.3656 C.2     1  UNL1        0.2435
      2 O         144.3896  141.0203  162.2959 O.2     1  UNL1       -0.2731
      3 N         142.8596  142.7498  161.1053 N.am    1  UNL1       -0.2781
      4 C         143.2342  142.1658  159.7755 C.3     1  UNL1        0.0956
      5 C         142.6564  142.7386  158.5153 C.3     1  UNL1        0.0490
      6 C         141.7041  143.8954  158.5850 C.3     1  UNL1        0.1377
      7 C         141.3295  144.4794  159.9148 C.3     1  UNL1        0.0490
      8 C         141.9072  143.9067  161.1750 C.3     1  UNL1        0.0956
      9 C         140.7447  145.0452  158.4979 C.2     1  UNL1        0.2491
     10 O         140.1946  145.8241  159.6558 O.2     1  UNL1       -0.2727
     11 N         140.4320  145.2794  157.0496 N.am    1  UNL1       -0.2108
     12 C         139.5143  146.3336  156.5051 C.3     1  UNL1        0.1245
     13 C         141.1981  144.2743  156.2416 C.2     1  UNL1        0.3168
     14 O         141.1811  144.1469  154.7472 O.2     1  UNL1       -0.2516
     15 N         141.9843  143.4190  157.1904 N.am    1  UNL1       -0.2411
     16 C         142.8914  142.2861  156.8115 C.2     1  UNL1        0.0376
     17 C         144.3454  142.5451  156.5488 C.2     1  UNL1        0.0125
     18 C         145.2525  141.4122  156.1699 C.2     1  UNL1        0.0216
     19 C         144.7057  140.0202  156.0535 C.2     1  UNL1        0.1008
     20 N         145.3528  138.7139  155.7003 N.2     1  UNL1       -0.1482
     21 N         144.2988  137.6476  155.7447 N.2     1  UNL1       -0.1467
     22 C         143.0003  138.2948  156.1252 C.2     1  UNL1        0.1198
     23 C         143.2517  139.7612  156.3161 C.2     1  UNL1        0.0238
     24 C         142.3447  140.8942  156.6951 C.3     1  UNL1        0.0710
     25 C         143.0627  142.7611  163.6955 C.3     1  UNL1        0.1489
     26 N         141.8883  142.2135  164.4511 N.am    1  UNL1       -0.2947
     27 C         142.0632  141.0269  165.3519 C.2     1  UNL1        0.2483
     28 O         143.4125  140.3879  165.4971 O.2     1  UNL1       -0.2701
     29 H         141.0027  142.6329  164.3558 H       1  UNL1        0.1501
     30 C         140.8888  140.4793  166.1075 C.ar    1  UNL1        0.0807
     31 C         140.8944  140.4827  167.6075 C.ar    1  UNL1        0.0106
     32 C         139.7200  139.9352  168.3632 C.ar    1  UNL1        0.0717
     33 C         138.5400  139.3842  167.6187 C.ar    1  UNL1        0.0062
     34 C         138.5344  139.3809  166.1188 C.ar    1  UNL1        0.0297
     35 C         139.7088  139.9284  165.3632 C.ar    1  UNL1        0.1444
     36 F         139.7033  139.9251  163.8632 F       1  UNL1       -0.2040
     37 C         139.7256  139.9385  169.8631 C.3     1  UNL1        0.4186
     38 F         139.7312  139.9419  171.3631 F       1  UNL1       -0.1659
     39 F         141.0841  139.3027  169.8595 F       1  UNL1       -0.1659
     40 F         138.3670  140.5743  169.8667 F       1  UNL1       -0.1659
     41 C         144.7640  143.6536  165.4445 C.3     1  UNL1        0.0022
     42 C         143.8625  143.8927  164.2698 C.3     1  UNL1        0.0269
     43 C         143.7608  145.2635  163.6693 C.3     1  UNL1        0.0022
@<TRIPOS>BOND
     1    41    42    1
     2    42    43    1
     3    42    25    1
     4    25    26    1
     5    26    27   am
     6    27    28    2
     7    27    30    1
     8    30    31   ar
     9    31    32   ar
    10    32    37    1
    11    37    38    1
    12    37    39    1
    13    37    40    1
    14    32    33   ar
    15    33    34   ar
    16    34    35   ar
    17    35    36    1
    18    25     1    1
    19     1     2    2
    20     1     3   am
    21     3     4    1
    22     4     5    1
    23     5     6    1
    24     6     7    1
    25     7     8    1
    26     6     9    1
    27     9    10    2
    28     9    11   am
    29    11    12    1
    30    11    13   am
    31    13    14    2
    32    13    15   am
    33    15    16    1
    34    16    17    2
    35    17    18    1
    36    18    19    2
    37    19    20    1
    38    20    21    2
    39    21    22    1
    40    22    23    2
    41    23    24    1
    42    35    30   ar
    43     8     3    1
    44    24    16    1
    45    15     6    1
    46    23    19    1
    47    26    29    1
@<TRIPOS>MOLECULE
*****
 43 47 0 0 0
SMALL
GASTEIGER

@<TRIPOS>ATOM
      1 C         139.8671  139.1827  160.7875 C.2     1  UNL1        0.2435
      2 O         139.0623  137.9196  160.7049 O.2     1  UNL1       -0.2731
      3 N         140.9414  139.4549  159.7767 N.am    1  UNL1       -0.2781
      4 C         141.2109  138.4641  158.6833 C.3     1  UNL1        0.0956
      5 C         142.2852  138.7363  157.6725 C.3     1  UNL1        0.0490
      6 C         143.0900  139.9995  157.7551 C.3     1  UNL1        0.1377
      7 C         142.8205  140.9903  158.8485 C.3     1  UNL1        0.0490
      8 C         141.7462  140.7180  159.8593 C.3     1  UNL1        0.0956
      9 C         143.9715  141.2123  157.7102 C.2     1  UNL1        0.2491
     10 O         143.9334  142.3658  158.6683 O.2     1  UNL1       -0.2727
     11 N         144.8977  141.0691  156.5390 N.am    1  UNL1       -0.2108
     12 C         145.9485  142.0543  156.1203 C.3     1  UNL1        0.1245
     13 C         144.5887  139.7677  155.8600 C.2     1  UNL1        0.3168
     14 O         145.2761  139.2231  154.6433 O.2     1  UNL1       -0.2516
     15 N         143.4714  139.1067  156.6116 N.am    1  UNL1       -0.2411
     16 C         142.8455  137.7849  156.2783 C.2     1  UNL1        0.0376
     17 C         141.6637  137.7258  155.3564 C.2     1  UNL1        0.0125
     18 C         141.0378  136.4040  155.0231 C.2     1  UNL1        0.0216
     19 C         141.5937  135.1412  155.6117 C.2     1  UNL1        0.1008
     20 N         141.1901  133.7038  155.4670 N.2     1  UNL1       -0.1482
     21 N         142.1224  132.8746  156.2994 N.2     1  UNL1       -0.1467
     22 C         143.1023  133.7994  156.9586 C.2     1  UNL1        0.1198
     23 C         142.7755  135.2003  156.5336 C.2     1  UNL1        0.0238
     24 C         143.4014  136.5221  156.8668 C.3     1  UNL1        0.0710
     25 C         139.5976  140.1735  161.8809 C.3     1  UNL1        0.1489
     26 N         140.4453  140.1739  163.1184 N.am    1  UNL1       -0.2947
     27 C         140.1240  139.2404  164.2479 C.2     1  UNL1        0.2483
     28 O         138.9551  138.3067  164.1397 O.2     1  UNL1       -0.2701
     29 H         141.2125  140.7868  163.1894 H       1  UNL1        0.1501
     30 C         140.9717  139.2408  165.4854 C.ar    1  UNL1        0.0807
     31 C         140.4130  139.7603  166.7770 C.ar    1  UNL1        0.0106
     32 C         141.2607  139.7606  168.0145 C.ar    1  UNL1        0.0717
     33 C         142.6670  139.2415  167.9604 C.ar    1  UNL1        0.0062
     34 C         143.2256  138.7221  166.6689 C.ar    1  UNL1        0.0297
     35 C         142.3779  138.7217  165.4313 C.ar    1  UNL1        0.1444
     36 F         142.9365  138.2023  164.1398 F       1  UNL1       -0.2040
     37 C         140.7021  140.2801  169.3060 C.3     1  UNL1        0.4186
     38 F         140.1435  140.7995  170.5976 F       1  UNL1       -0.1659
     39 F         140.0155  141.3878  168.5635 F       1  UNL1       -0.1659
     40 F         141.3887  139.1723  170.0485 F       1  UNL1       -0.1659
     41 C         138.4184  142.0546  160.5314 C.3     1  UNL1        0.0022
     42 C         138.4804  141.1641  161.7368 C.3     1  UNL1        0.0269
     43 C         137.4252  141.2642  162.7982 C.3     1  UNL1        0.0022
@<TRIPOS>BOND
     1    41    42    1
     2    42    43    1
     3    42    25    1
     4    25    26    1
     5    26    27   am
     6    27    28    2
     7    27    30    1
     8    30    31   ar
     9    31    32   ar
    10    32    37    1
    11    37    38    1
    12    37    39    1
    13    37    40    1
    14    32    33   ar
    15    33    34   ar
    16    34    35   ar
    17    35    36    1
    18    25     1    1
    19     1     2    2
    20     1     3   am
    21     3     4    1
    22     4     5    1
    23     5     6    1
    24     6     7    1
    25     7     8    1
    26     6     9    1
    27     9    10    2
    28     9    11   am
    29    11    12    1
    30    11    13   am
    31    13    14    2
    32    13    15   am
    33    15    16    1
    34    16    17    2
    35    17    18    1
    36    18    19    2
    37    19    20    1
    38    20    21    2
    39    21    22    1
    40    22    23    2
    41    23    24    1
    42    35    30   ar
    43     8     3    1
    44    24    16    1
    45    15     6    1
    46    23    19    1
    47    26    29    1
@<TRIPOS>MOLECULE
*****
 43 47 0 0 0
SMALL
GASTEIGER

@<TRIPOS>ATOM
      1 C         140.9909  143.1617  161.7447 C.2     1  UNL1        0.2435
      2 O         139.9564  144.2403  161.6165 O.2     1  UNL1       -0.2731
      3 N         141.1702  142.1597  160.6429 N.am    1  UNL1       -0.2781
      4 C         140.3151  142.2364  159.4129 C.3     1  UNL1        0.0956
      5 C         140.4944  141.2344  158.3112 C.3     1  UNL1        0.0490
      6 C         141.5289  140.1558  158.4394 C.3     1  UNL1        0.1377
      7 C         142.3840  140.0791  159.6694 C.3     1  UNL1        0.0490
      8 C         142.2046  141.0811  160.7711 C.3     1  UNL1        0.0956
      9 C         142.5169  139.0272  158.4262 C.2     1  UNL1        0.2491
     10 O         143.4990  138.7024  159.5124 O.2     1  UNL1       -0.2727
     11 N         142.3503  138.2803  157.1360 N.am    1  UNL1       -0.2108
     12 C         143.1366  137.0777  156.7055 C.3     1  UNL1        0.1245
     13 C         141.2593  138.9474  156.3518 C.2     1  UNL1        0.3168
     14 O         140.7631  138.5289  154.9996 O.2     1  UNL1       -0.2516
     15 N         140.7516  140.1064  157.1573 N.am    1  UNL1       -0.2411
     16 C         139.6587  141.0504  156.7521 C.2     1  UNL1        0.0376
     17 C         138.2280  140.7150  157.0530 C.2     1  UNL1        0.0125
     18 C         137.1351  141.6590  156.6477 C.2     1  UNL1        0.0216
     19 C         137.4728  142.9386  155.9415 C.2     1  UNL1        0.1008
     20 N         136.6161  144.0559  155.4242 N.2     1  UNL1       -0.1482
     21 N         137.5172  145.0819  154.8036 N.2     1  UNL1       -0.1467
     22 C         138.9310  144.5987  154.9374 C.2     1  UNL1        0.1198
     23 C         138.9035  143.2741  155.6406 C.2     1  UNL1        0.0238
     24 C         139.9964  142.3300  156.0459 C.3     1  UNL1        0.0710
     25 C         141.8460  143.0850  162.9747 C.3     1  UNL1        0.1489
     26 N         141.4643  142.1665  164.0975 N.am    1  UNL1       -0.2947
     27 C         140.4406  142.5989  165.1051 C.2     1  UNL1        0.2483
     28 O         139.7987  143.9497  164.9899 O.2     1  UNL1       -0.2701
     29 H         141.8856  141.2799  164.1731 H       1  UNL1        0.1501
     30 C         140.0589  141.6804  166.2279 C.ar    1  UNL1        0.0807
     31 C         139.2652  140.4394  165.9449 C.ar    1  UNL1        0.0106
     32 C         138.8835  139.5209  167.0677 C.ar    1  UNL1        0.0717
     33 C         139.2954  139.8435  168.4735 C.ar    1  UNL1        0.0062
     34 C         140.0891  141.0844  168.7565 C.ar    1  UNL1        0.0297
     35 C         140.4708  142.0029  167.6337 C.ar    1  UNL1        0.1444
     36 F         141.2645  143.2438  167.9167 F       1  UNL1       -0.2040
     37 C         138.0898  138.2800  166.7847 C.3     1  UNL1        0.4186
     38 F         137.2961  137.0390  166.5016 F       1  UNL1       -0.1659
     39 F         138.9975  137.9620  165.6337 F       1  UNL1       -0.1659
     40 F         137.1821  138.5981  167.9357 F       1  UNL1       -0.1659
     41 C         143.0736  145.1701  163.9210 C.3     1  UNL1        0.0022
     42 C         143.0829  143.9268  163.0819 C.3     1  UNL1        0.0269
     43 C         144.3291  143.5253  162.3499 C.3     1  UNL1        0.0022
@<TRIPOS>BOND
     1    41    42    1
     2    42    43    1
     3    42    25    1
     4    25    26    1
     5    26    27   am
     6    27    28    2
     7    27    30    1
     8    30    31   ar
     9    31    32   ar
    10    32    37    1
    11    37    38    1
    12    37    39    1
    13    37    40    1
    14    32    33   ar
    15    33    34   ar
    16    34    35   ar
    17    35    36    1
    18    25     1    1
    19     1     2    2
    20     1     3   am
    21     3     4    1
    22     4     5    1
    23     5     6    1
    24     6     7    1
    25     7     8    1
    26     6     9    1
    27     9    10    2
    28     9    11   am
    29    11    12    1
    30    11    13   am
    31    13    14    2
    32    13    15   am
    33    15    16    1
    34    16    17    2
    35    17    18    1
    36    18    19    2
    37    19    20    1
    38    20    21    2
    39    21    22    1
    40    22    23    2
    41    23    24    1
    42    35    30   ar
    43     8     3    1
    44    24    16    1
    45    15     6    1
    46    23    19    1
    47    26    29    1
@<TRIPOS>MOLECULE
*****
 43 47 0 0 0
SMALL
GASTEIGER

@<TRIPOS>ATOM
      1 C         139.8883  139.1702  160.6268 C.2     1  UNL1        0.2435
      2 O         139.0479  137.9306  160.5416 O.2     1  UNL1       -0.2731
      3 N         140.9775  139.4083  159.6232 N.am    1  UNL1       -0.2781
      4 C         141.2263  138.4069  158.5346 C.3     1  UNL1        0.0956
      5 C         142.3154  138.6450  157.5311 C.3     1  UNL1        0.0490
      6 C         143.1558  139.8846  157.6163 C.3     1  UNL1        0.1377
      7 C         142.9070  140.8860  158.7050 C.3     1  UNL1        0.0490
      8 C         141.8179  140.6478  159.7085 C.3     1  UNL1        0.0956
      9 C         144.0723  141.0713  157.5748 C.2     1  UNL1        0.2491
     10 O         144.0606  142.2282  158.5295 O.2     1  UNL1       -0.2727
     11 N         145.0027  140.8979  156.4110 N.am    1  UNL1       -0.2108
     12 C         146.0846  141.8511  155.9975 C.3     1  UNL1        0.1245
     13 C         144.6612  139.6040  155.7332 C.2     1  UNL1        0.3168
     14 O         145.3415  139.0362  154.5231 O.2     1  UNL1       -0.2516
     15 N         143.5197  138.9778  156.4781 N.am    1  UNL1       -0.2411
     16 C         142.8583  137.6737  156.1437 C.2     1  UNL1        0.0376
     17 C         141.6810  137.6464  155.2147 C.2     1  UNL1        0.0125
     18 C         141.0196  136.3422  154.8803 C.2     1  UNL1        0.0216
     19 C         141.5355  135.0654  155.4749 C.2     1  UNL1        0.1008
     20 N         141.0918  133.6398  155.3307 N.2     1  UNL1       -0.1482
     21 N         141.9949  132.7861  156.1706 N.2     1  UNL1       -0.1467
     22 C         142.9968  133.6840  156.8339 C.2     1  UNL1        0.1198
     23 C         142.7128  135.0927  156.4040 C.2     1  UNL1        0.0238
     24 C         143.3742  136.3968  156.7383 C.3     1  UNL1        0.0710
     25 C         139.6395  140.1716  161.7154 C.3     1  UNL1        0.1489
     26 N         140.4946  140.1677  162.9478 N.am    1  UNL1       -0.2947
     27 C         140.1538  139.2622  164.0942 C.2     1  UNL1        0.2483
     28 O         138.9581  138.3607  164.0082 O.2     1  UNL1       -0.2701
     29 H         141.2794  140.7593  163.0043 H       1  UNL1        0.1501
     30 C         141.0089  139.2583  165.3266 C.ar    1  UNL1        0.0807
     31 C         142.3701  138.6289  165.2930 C.ar    1  UNL1        0.0106
     32 C         143.2252  138.6250  166.5254 C.ar    1  UNL1        0.0717
     33 C         142.7191  139.2504  167.7914 C.ar    1  UNL1        0.0062
     34 C         141.3580  139.8798  167.8250 C.ar    1  UNL1        0.0297
     35 C         140.5029  139.8837  166.5926 C.ar    1  UNL1        0.1444
     36 F         139.1418  140.5131  166.6261 F       1  UNL1       -0.2040
     37 C         144.5864  137.9956  166.4918 C.3     1  UNL1        0.4186
     38 F         145.9476  137.3662  166.4582 F       1  UNL1       -0.1659
     39 F         144.9485  138.8420  165.3077 F       1  UNL1       -0.1659
     40 F         144.2242  137.1492  167.6760 F       1  UNL1       -0.1659
     41 C         138.4819  142.0644  160.3636 C.3     1  UNL1        0.0022
     42 C         138.5355  141.1770  161.5717 C.3     1  UNL1        0.0269
     43 C         137.4853  141.2949  162.6362 C.3     1  UNL1        0.0022
@<TRIPOS>BOND
     1    41    42    1
     2    42    43    1
     3    42    25    1
     4    25    26    1
     5    26    27   am
     6    27    28    2
     7    27    30    1
     8    30    31   ar
     9    31    32   ar
    10    32    37    1
    11    37    38    1
    12    37    39    1
    13    37    40    1
    14    32    33   ar
    15    33    34   ar
    16    34    35   ar
    17    35    36    1
    18    25     1    1
    19     1     2    2
    20     1     3   am
    21     3     4    1
    22     4     5    1
    23     5     6    1
    24     6     7    1
    25     7     8    1
    26     6     9    1
    27     9    10    2
    28     9    11   am
    29    11    12    1
    30    11    13   am
    31    13    14    2
    32    13    15   am
    33    15    16    1
    34    16    17    2
    35    17    18    1
    36    18    19    2
    37    19    20    1
    38    20    21    2
    39    21    22    1
    40    22    23    2
    41    23    24    1
    42    35    30   ar
    43     8     3    1
    44    24    16    1
    45    15     6    1
    46    23    19    1
    47    26    29    1
@<TRIPOS>MOLECULE
*****
 43 47 0 0 0
SMALL
GASTEIGER

@<TRIPOS>ATOM
      1 C         143.2901  141.1568  161.8868 C.2     1  UNL1        0.2435
      2 O         144.4902  140.2656  161.7618 O.2     1  UNL1       -0.2731
      3 N         142.3221  141.2755  160.7471 N.am    1  UNL1       -0.2781
      4 C         142.5541  140.5031  159.4824 C.3     1  UNL1        0.0956
      5 C         141.5861  140.6218  158.3428 C.3     1  UNL1        0.0490
      6 C         140.3861  141.5131  158.4678 C.3     1  UNL1        0.1377
      7 C         140.1540  142.2855  159.7325 C.3     1  UNL1        0.0490
      8 C         141.1220  142.1667  160.8721 C.3     1  UNL1        0.0956
      9 C         139.1482  142.3600  158.4471 C.2     1  UNL1        0.2491
     10 O         138.6610  143.2368  159.5624 O.2     1  UNL1       -0.2727
     11 N         138.4830  142.1761  157.1152 N.am    1  UNL1       -0.2108
     12 C         137.2139  142.8368  156.6648 C.3     1  UNL1        0.1245
     13 C         139.3098  141.2155  156.3128 C.2     1  UNL1        0.3168
     14 O         139.0127  140.7471  154.9193 O.2     1  UNL1       -0.2516
     15 N         140.4859  140.8058  157.1488 N.am    1  UNL1       -0.2411
     16 C         141.5714  139.8556  156.7379 C.2     1  UNL1        0.0376
     17 C         142.8202  140.3777  156.0915 C.2     1  UNL1        0.0125
     18 C         143.9056  139.4274  155.6806 C.2     1  UNL1        0.0216
     19 C         143.7423  137.9550  155.9162 C.2     1  UNL1        0.1008
     20 N         144.6346  136.7861  155.6202 N.2     1  UNL1       -0.1482
     21 N         143.9372  135.5417  156.0837 N.2     1  UNL1       -0.1467
     22 C         142.6140  135.9414  156.6661 C.2     1  UNL1        0.1198
     23 C         142.4935  137.4329  156.5626 C.2     1  UNL1        0.0238
     24 C         141.4081  138.3832  156.9735 C.3     1  UNL1        0.0710
     25 C         143.0581  141.9292  163.1515 C.3     1  UNL1        0.1489
     26 N         141.9176  141.5641  164.0548 N.am    1  UNL1       -0.2947
     27 C         142.0970  140.5000  165.0967 C.2     1  UNL1        0.2483
     28 O         143.4169  139.8009  165.2352 O.2     1  UNL1       -0.2701
     29 H         141.0513  142.0229  163.9639 H       1  UNL1        0.1501
     30 C         140.9565  140.1349  166.0000 C.ar    1  UNL1        0.0807
     31 C         141.0784  140.3377  167.4812 C.ar    1  UNL1        0.0106
     32 C         139.9379  139.9726  168.3845 C.ar    1  UNL1        0.0717
     33 C         138.6755  139.4047  167.8066 C.ar    1  UNL1        0.0062
     34 C         138.5537  139.2020  166.3254 C.ar    1  UNL1        0.0297
     35 C         139.6942  139.5670  165.4221 C.ar    1  UNL1        0.1444
     36 F         139.5724  139.3643  163.9409 F       1  UNL1       -0.2040
     37 C         140.0597  140.1754  169.8657 C.3     1  UNL1        0.4186
     38 F         140.1815  140.3782  171.3470 F       1  UNL1       -0.1659
     39 F         138.9399  141.1724  169.8213 F       1  UNL1       -0.1659
     40 F         141.1795  139.1784  169.9101 F       1  UNL1       -0.1659
     41 C         144.4448  143.2250  164.9258 C.3     1  UNL1        0.0022
     42 C         143.9666  143.0668  163.5129 C.3     1  UNL1        0.0269
     43 C         144.3969  144.0462  162.4614 C.3     1  UNL1        0.0022
@<TRIPOS>BOND
     1    41    42    1
     2    42    43    1
     3    42    25    1
     4    25    26    1
     5    26    27   am
     6    27    28    2
     7    27    30    1
     8    30    31   ar
     9    31    32   ar
    10    32    37    1
    11    37    38    1
    12    37    39    1
    13    37    40    1
    14    32    33   ar
    15    33    34   ar
    16    34    35   ar
    17    35    36    1
    18    25     1    1
    19     1     2    2
    20     1     3   am
    21     3     4    1
    22     4     5    1
    23     5     6    1
    24     6     7    1
    25     7     8    1
    26     6     9    1
    27     9    10    2
    28     9    11   am
    29    11    12    1
    30    11    13   am
    31    13    14    2
    32    13    15   am
    33    15    16    1
    34    16    17    2
    35    17    18    1
    36    18    19    2
    37    19    20    1
    38    20    21    2
    39    21    22    1
    40    22    23    2
    41    23    24    1
    42    35    30   ar
    43     8     3    1
    44    24    16    1
    45    15     6    1
    46    23    19    1
    47    26    29    1
@<TRIPOS>MOLECULE
*****
 43 47 0 0 0
SMALL
GASTEIGER

@<TRIPOS>ATOM
      1 C         141.2288  138.9315  163.1446 C.2     1  UNL1        0.2435
      2 O         142.1489  137.9249  162.5201 O.2     1  UNL1       -0.2731
      3 N         141.1107  140.3063  162.5561 N.am    1  UNL1       -0.2781
      4 C         141.9128  140.6743  161.3432 C.3     1  UNL1        0.0956
      5 C         141.7948  142.0489  160.7547 C.3     1  UNL1        0.0490
      6 C         140.8746  143.0556  161.3792 C.3     1  UNL1        0.1377
      7 C         140.0725  142.6876  162.5921 C.3     1  UNL1        0.0490
      8 C         140.1906  141.3129  163.1805 C.3     1  UNL1        0.0956
      9 C         140.0008  144.1619  161.8915 C.2     1  UNL1        0.2491
     10 O         139.0916  144.0878  163.0822 O.2     1  UNL1       -0.2727
     11 N         140.1958  145.3555  161.0040 N.am    1  UNL1       -0.2108
     12 C         139.5158  146.6843  161.1514 C.3     1  UNL1        0.1245
     13 C         141.1902  144.9867  159.9432 C.2     1  UNL1        0.3168
     14 O         141.6791  145.8821  158.8436 O.2     1  UNL1       -0.2516
     15 N         141.6097  143.5654  160.1750 N.am    1  UNL1       -0.2411
     16 C         142.5918  142.7899  159.3480 C.2     1  UNL1        0.0376
     17 C         144.0551  142.8456  159.6732 C.2     1  UNL1        0.0125
     18 C         145.0372  142.0701  158.8461 C.2     1  UNL1        0.0216
     19 C         144.5561  141.2388  157.6939 C.2     1  UNL1        0.1008
     20 N         145.2833  140.3737  156.7076 N.2     1  UNL1       -0.1482
     21 N         144.2695  139.7834  155.7730 N.2     1  UNL1       -0.1467
     22 C         142.9157  140.2836  156.1816 C.2     1  UNL1        0.1198
     23 C         143.0928  141.1830  157.3688 C.2     1  UNL1        0.0238
     24 C         142.1107  141.9586  158.1958 C.3     1  UNL1        0.0710
     25 C         140.4267  138.5635  164.3575 C.3     1  UNL1        0.1489
     26 N         140.8887  138.9890  165.7196 N.am    1  UNL1       -0.2947
     27 C         140.0686  139.9556  166.5217 C.2     1  UNL1        0.2483
     28 O         138.7867  140.4967  165.9617 O.2     1  UNL1       -0.2701
     29 H         141.7301  138.6339  166.0872 H       1  UNL1        0.1501
     30 C         140.5307  140.3811  167.8839 C.ar    1  UNL1        0.0807
     31 C         141.8827  141.0078  168.0555 C.ar    1  UNL1        0.0106
     32 C         142.3447  141.4333  169.4176 C.ar    1  UNL1        0.0717
     33 C         141.4547  141.2321  170.6082 C.ar    1  UNL1        0.0062
     34 C         140.1027  140.6054  170.4366 C.ar    1  UNL1        0.0297
     35 C         139.6407  140.1800  169.0745 C.ar    1  UNL1        0.1444
     36 F         138.2888  139.5533  168.9029 F       1  UNL1       -0.2040
     37 C         143.6967  142.0599  169.5892 C.3     1  UNL1        0.4186
     38 F         145.0487  142.6866  169.7608 F       1  UNL1       -0.1659
     39 F         143.4767  142.8741  168.3488 F       1  UNL1       -0.1659
     40 F         143.9166  141.2457  170.8297 F       1  UNL1       -0.1659
     41 C         138.5163  137.6350  162.8613 C.3     1  UNL1        0.0022
     42 C         139.1625  137.7700  164.2082 C.3     1  UNL1        0.0269
     43 C         138.5445  137.1115  165.4059 C.3     1  UNL1        0.0022
@<TRIPOS>BOND
     1    41    42    1
     2    42    43    1
     3    42    25    1
     4    25    26    1
     5    26    27   am
     6    27    28    2
     7    27    30    1
     8    30    31   ar
     9    31    32   ar
    10    32    37    1
    11    37    38    1
    12    37    39    1
    13    37    40    1
    14    32    33   ar
    15    33    34   ar
    16    34    35   ar
    17    35    36    1
    18    25     1    1
    19     1     2    2
    20     1     3   am
    21     3     4    1
    22     4     5    1
    23     5     6    1
    24     6     7    1
    25     7     8    1
    26     6     9    1
    27     9    10    2
    28     9    11   am
    29    11    12    1
    30    11    13   am
    31    13    14    2
    32    13    15   am
    33    15    16    1
    34    16    17    2
    35    17    18    1
    36    18    19    2
    37    19    20    1
    38    20    21    2
    39    21    22    1
    40    22    23    2
    41    23    24    1
    42    35    30   ar
    43     8     3    1
    44    24    16    1
    45    15     6    1
    46    23    19    1
    47    26    29    1
@<TRIPOS>MOLECULE
*****
 43 47 0 0 0
SMALL
GASTEIGER

@<TRIPOS>ATOM
      1 C         140.7448  139.9149  158.7829 C.2     1  UNL1        0.2435
      2 O         141.7563  140.9550  158.4021 O.2     1  UNL1       -0.2731
      3 N         140.4525  139.6472  160.2296 N.am    1  UNL1       -0.2781
      4 C         141.1718  140.4195  161.2955 C.3     1  UNL1        0.0956
      5 C         140.8796  140.1517  162.7422 C.3     1  UNL1        0.0490
      6 C         139.8680  139.1116  163.1229 C.3     1  UNL1        0.1377
      7 C         139.1487  138.3393  162.0571 C.3     1  UNL1        0.0490
      8 C         139.4410  138.6071  160.6104 C.3     1  UNL1        0.0956
      9 C         138.8877  138.1077  163.6533 C.2     1  UNL1        0.2491
     10 O         138.0276  137.1953  162.8300 O.2     1  UNL1       -0.2727
     11 N         138.9186  138.1763  165.1515 N.am    1  UNL1       -0.2108
     12 C         138.0948  137.3447  166.0893 C.3     1  UNL1        0.1245
     13 C         139.9180  139.2227  165.5470 C.2     1  UNL1        0.3168
     14 O         140.2689  139.6211  166.9498 O.2     1  UNL1       -0.2516
     15 N         140.5047  139.8007  164.2934 N.am    1  UNL1       -0.2411
     16 C         141.5454  140.8786  164.2224 C.2     1  UNL1        0.0376
     17 C         143.0012  140.5197  164.2661 C.2     1  UNL1        0.0125
     18 C         144.0418  141.5977  164.1952 C.2     1  UNL1        0.0216
     19 C         143.6268  143.0346  164.0806 C.2     1  UNL1        0.1008
     20 N         144.4201  144.3045  163.9922 N.2     1  UNL1       -0.1482
     21 N         143.4547  145.4482  163.8939 N.2     1  UNL1       -0.1467
     22 C         142.0647  144.8852  163.9215 C.2     1  UNL1        0.1198
     23 C         142.1710  143.3935  164.0369 C.2     1  UNL1        0.0238
     24 C         141.1304  142.3155  164.1078 C.3     1  UNL1        0.0710
     25 C         140.0254  139.1427  157.7170 C.3     1  UNL1        0.1489
     26 N         140.3974  137.7152  157.4448 N.am    1  UNL1       -0.2947
     27 C         141.5826  137.4007  156.5808 C.2     1  UNL1        0.2483
     28 O         142.3958  138.5136  155.9891 O.2     1  UNL1       -0.2701
     29 H         139.8637  136.9848  157.8331 H       1  UNL1        0.1501
     30 C         141.9546  135.9733  156.3085 C.ar    1  UNL1        0.0807
     31 C         143.0363  135.3139  157.1118 C.ar    1  UNL1        0.0106
     32 C         143.4083  133.8865  156.8395 C.ar    1  UNL1        0.0717
     33 C         142.6985  133.1185  155.7640 C.ar    1  UNL1        0.0062
     34 C         141.6169  133.7780  154.9609 C.ar    1  UNL1        0.0297
     35 C         141.2449  135.2054  155.2331 C.ar    1  UNL1        0.1444
     36 F         140.1633  135.8648  154.4300 F       1  UNL1       -0.2040
     37 C         144.4899  133.2270  157.6426 C.3     1  UNL1        0.4186
     38 F         145.5716  132.5675  158.4459 F       1  UNL1       -0.1659
     39 F         144.0720  134.0123  158.8503 F       1  UNL1       -0.1659
     40 F         144.9079  132.4417  156.4349 F       1  UNL1       -0.1659
     41 C         138.0665  140.8421  157.5609 C.3     1  UNL1        0.0022
     42 C         138.9341  139.7978  156.9234 C.3     1  UNL1        0.0269
     43 C         138.7105  139.4085  155.4921 C.3     1  UNL1        0.0022
@<TRIPOS>BOND
     1    41    42    1
     2    42    43    1
     3    42    25    1
     4    25    26    1
     5    26    27   am
     6    27    28    2
     7    27    30    1
     8    30    31   ar
     9    31    32   ar
    10    32    37    1
    11    37    38    1
    12    37    39    1
    13    37    40    1
    14    32    33   ar
    15    33    34   ar
    16    34    35   ar
    17    35    36    1
    18    25     1    1
    19     1     2    2
    20     1     3   am
    21     3     4    1
    22     4     5    1
    23     5     6    1
    24     6     7    1
    25     7     8    1
    26     6     9    1
    27     9    10    2
    28     9    11   am
    29    11    12    1
    30    11    13   am
    31    13    14    2
    32    13    15   am
    33    15    16    1
    34    16    17    2
    35    17    18    1
    36    18    19    2
    37    19    20    1
    38    20    21    2
    39    21    22    1
    40    22    23    2
    41    23    24    1
    42    35    30   ar
    43     8     3    1
    44    24    16    1
    45    15     6    1
    46    23    19    1
    47    26    29    1
@<TRIPOS>MOLECULE
*****
 43 47 0 0 0
SMALL
GASTEIGER

@<TRIPOS>ATOM
      1 C         141.0159  143.0097  161.8873 C.2     1  UNL1        0.2435
      2 O         139.9917  144.0980  161.7587 O.2     1  UNL1       -0.2731
      3 N         141.1725  141.9942  160.7944 N.am    1  UNL1       -0.2781
      4 C         140.3050  142.0671  159.5730 C.3     1  UNL1        0.0956
      5 C         140.4616  141.0517  158.4802 C.3     1  UNL1        0.0490
      6 C         141.4858  139.9633  158.6088 C.3     1  UNL1        0.1377
      7 C         142.3534  139.8905  159.8303 C.3     1  UNL1        0.0490
      8 C         142.1967  140.9059  160.9231 C.3     1  UNL1        0.0956
      9 C         142.4615  138.8241  158.5971 C.2     1  UNL1        0.2491
     10 O         143.4519  138.5002  159.6761 O.2     1  UNL1       -0.2727
     11 N         142.2730  138.0654  157.3168 N.am    1  UNL1       -0.2108
     12 C         143.0417  136.8498  156.8908 C.3     1  UNL1        0.1245
     13 C         141.1807  138.7359  156.5373 C.2     1  UNL1        0.3168
     14 O         140.6655  138.3084  155.1950 O.2     1  UNL1       -0.2516
     15 N         140.6943  139.9088  157.3358 N.am    1  UNL1       -0.2411
     16 C         139.6071  140.8602  156.9322 C.2     1  UNL1        0.0376
     17 C         138.1776  140.5499  157.2638 C.2     1  UNL1        0.0125
     18 C         137.0905  141.5014  156.8601 C.2     1  UNL1        0.0216
     19 C         137.4329  142.7632  156.1249 C.2     1  UNL1        0.1008
     20 N         136.5823  143.8826  155.6021 N.2     1  UNL1       -0.1482
     21 N         137.4861  144.8847  154.9474 N.2     1  UNL1       -0.1467
     22 C         138.8954  144.3847  155.0656 C.2     1  UNL1        0.1198
     23 C         138.8625  143.0736  155.7933 C.2     1  UNL1        0.0238
     24 C         139.9496  142.1221  156.1970 C.3     1  UNL1        0.0710
     25 C         141.8834  142.9368  163.1088 C.3     1  UNL1        0.1489
     26 N         141.4814  142.0680  164.2635 N.am    1  UNL1       -0.2947
     27 C         140.4949  142.5732  165.2744 C.2     1  UNL1        0.2483
     28 O         139.9105  143.9471  165.1304 O.2     1  UNL1       -0.2701
     29 H         141.8649  141.1662  164.3580 H       1  UNL1        0.1501
     30 C         140.0928  141.7043  166.4291 C.ar    1  UNL1        0.0807
     31 C         140.4651  142.0968  167.8283 C.ar    1  UNL1        0.0106
     32 C         140.0630  141.2280  168.9830 C.ar    1  UNL1        0.0717
     33 C         139.2887  139.9667  168.7387 C.ar    1  UNL1        0.0062
     34 C         138.9165  139.5743  167.3396 C.ar    1  UNL1        0.0297
     35 C         139.3186  140.4431  166.1848 C.ar    1  UNL1        0.1444
     36 F         138.9463  140.0507  164.7858 F       1  UNL1       -0.2040
     37 C         140.4352  141.6204  170.3821 C.3     1  UNL1        0.4186
     38 F         140.8075  142.0128  171.7812 F       1  UNL1       -0.1659
     39 F         141.5596  140.6277  170.3614 F       1  UNL1       -0.1659
     40 F         139.3109  142.6130  170.4028 F       1  UNL1       -0.1659
     41 C         144.4627  143.0860  162.8339 C.3     1  UNL1        0.0022
     42 C         143.1531  143.7328  163.1755 C.3     1  UNL1        0.0269
     43 C         143.1132  145.1756  163.5839 C.3     1  UNL1        0.0022
@<TRIPOS>BOND
     1    41    42    1
     2    42    43    1
     3    42    25    1
     4    25    26    1
     5    26    27   am
     6    27    28    2
     7    27    30    1
     8    30    31   ar
     9    31    32   ar
    10    32    37    1
    11    37    38    1
    12    37    39    1
    13    37    40    1
    14    32    33   ar
    15    33    34   ar
    16    34    35   ar
    17    35    36    1
    18    25     1    1
    19     1     2    2
    20     1     3   am
    21     3     4    1
    22     4     5    1
    23     5     6    1
    24     6     7    1
    25     7     8    1
    26     6     9    1
    27     9    10    2
    28     9    11   am
    29    11    12    1
    30    11    13   am
    31    13    14    2
    32    13    15   am
    33    15    16    1
    34    16    17    2
    35    17    18    1
    36    18    19    2
    37    19    20    1
    38    20    21    2
    39    21    22    1
    40    22    23    2
    41    23    24    1
    42    35    30   ar
    43     8     3    1
    44    24    16    1
    45    15     6    1
    46    23    19    1
    47    26    29    1
@<TRIPOS>MOLECULE
*****
 43 47 0 0 0
SMALL
GASTEIGER

@<TRIPOS>ATOM
      1 C         141.3991  143.4881  161.6693 C.2     1  UNL1        0.2435
      2 O         140.4472  144.6474  161.6671 O.2     1  UNL1       -0.2731
      3 N         141.7080  142.7689  160.3896 N.am    1  UNL1       -0.2781
      4 C         141.0650  143.2090  159.1079 C.3     1  UNL1        0.0956
      5 C         141.3739  142.4898  157.8284 C.3     1  UNL1        0.0490
      6 C         142.3258  141.3306  157.8305 C.3     1  UNL1        0.1377
      7 C         142.9688  140.8905  159.1123 C.3     1  UNL1        0.0490
      8 C         142.6599  141.6097  160.3918 C.3     1  UNL1        0.0956
      9 C         143.2524  140.1608  157.6781 C.2     1  UNL1        0.2491
     10 O         144.0326  139.5048  158.7785 O.2     1  UNL1       -0.2727
     11 N         143.2616  139.7621  156.2320 N.am    1  UNL1       -0.2108
     12 C         144.0527  138.6375  155.6325 C.3     1  UNL1        0.1245
     13 C         142.3408  140.6855  155.4907 C.2     1  UNL1        0.3168
     14 O         142.0494  140.6464  154.0199 O.2     1  UNL1       -0.2516
     15 N         141.7624  141.6548  156.4786 N.am    1  UNL1       -0.2411
     16 C         140.7913  142.7553  156.1691 C.2     1  UNL1        0.0376
     17 C         139.3157  142.4918  156.2273 C.2     1  UNL1        0.0125
     18 C         138.3446  143.5923  155.9178 C.2     1  UNL1        0.0216
     19 C         138.8490  144.9563  155.5500 C.2     1  UNL1        0.1008
     20 N         138.1367  146.2281  155.1962 N.2     1  UNL1       -0.1482
     21 N         139.1720  147.2775  154.9193 N.2     1  UNL1       -0.1467
     22 C         140.5241  146.6544  155.1021 C.2     1  UNL1        0.1198
     23 C         140.3245  145.2198  155.4919 C.2     1  UNL1        0.0238
     24 C         141.2956  144.1193  155.8014 C.3     1  UNL1        0.0710
     25 C         142.0421  143.0480  162.9510 C.3     1  UNL1        0.1489
     26 N         141.3891  141.9932  163.7941 N.am    1  UNL1       -0.2947
     27 C         140.4089  142.3853  164.8598 C.2     1  UNL1        0.2483
     28 O         140.0817  143.8321  165.0822 O.2     1  UNL1       -0.2701
     29 H         141.6038  141.0436  163.6481 H       1  UNL1        0.1501
     30 C         139.7558  141.3304  165.7029 C.ar    1  UNL1        0.0807
     31 C         140.1317  141.1862  167.1479 C.ar    1  UNL1        0.0106
     32 C         139.4787  140.1314  167.9911 C.ar    1  UNL1        0.0717
     33 C         138.4498  139.2207  167.3892 C.ar    1  UNL1        0.0062
     34 C         138.0740  139.3650  165.9443 C.ar    1  UNL1        0.0297
     35 C         138.7270  140.4198  165.1011 C.ar    1  UNL1        0.1444
     36 F         138.3512  140.5641  163.6562 F       1  UNL1       -0.2040
     37 C         139.8546  139.9871  169.4360 C.3     1  UNL1        0.4186
     38 F         140.2304  139.8429  170.8810 F       1  UNL1       -0.1659
     39 F         138.4500  140.3299  169.8356 F       1  UNL1       -0.1659
     40 F         141.2591  139.6444  169.0365 F       1  UNL1       -0.1659
     41 C         143.3700  145.0839  163.8687 C.3     1  UNL1        0.0022
     42 C         143.3382  143.6628  163.3897 C.3     1  UNL1        0.0269
     43 C         144.6023  142.8564  163.3493 C.3     1  UNL1        0.0022
@<TRIPOS>BOND
     1    41    42    1
     2    42    43    1
     3    42    25    1
     4    25    26    1
     5    26    27   am
     6    27    28    2
     7    27    30    1
     8    30    31   ar
     9    31    32   ar
    10    32    37    1
    11    37    38    1
    12    37    39    1
    13    37    40    1
    14    32    33   ar
    15    33    34   ar
    16    34    35   ar
    17    35    36    1
    18    25     1    1
    19     1     2    2
    20     1     3   am
    21     3     4    1
    22     4     5    1
    23     5     6    1
    24     6     7    1
    25     7     8    1
    26     6     9    1
    27     9    10    2
    28     9    11   am
    29    11    12    1
    30    11    13   am
    31    13    14    2
    32    13    15   am
    33    15    16    1
    34    16    17    2
    35    17    18    1
    36    18    19    2
    37    19    20    1
    38    20    21    2
    39    21    22    1
    40    22    23    2
    41    23    24    1
    42    35    30   ar
    43     8     3    1
    44    24    16    1
    45    15     6    1
    46    23    19    1
    47    26    29    1
