@<TRIPOS>MOLECULE
*****
 34 37 0 0 0
SMALL
GASTEIGER

@<TRIPOS>ATOM
      1 N         140.5320  144.5199  162.5217 N.3     1  UNL1       -0.2670
      2 C         141.1849  143.7471  161.4143 C.3     1  UNL1        0.1035
      3 C         142.4399  142.9699  161.6807 C.3     1  UNL1        0.1470
      4 C         143.6949  142.1927  161.9471 C.3     1  UNL1        0.1035
      5 N         144.2970  142.1883  163.3209 N.3     1  UNL1       -0.2682
      6 C         143.6440  142.9611  164.4284 C.3     1  UNL1        0.1035
      7 C         142.3890  143.7383  164.1620 C.3     1  UNL1        0.1470
      8 C         141.1341  144.5154  163.8956 C.3     1  UNL1        0.1035
      9 O         143.0419  142.9655  163.0546 O.3     1  UNL1       -0.3530
     10 C         139.2770  145.2971  162.2554 C.3     1  UNL1        0.0995
     11 C         137.9711  144.8323  162.8284 C.3     1  UNL1        0.1861
     12 S         137.6803  143.3648  162.9387 S.O2    1  UNL1        0.0425
     13 O         137.8040  143.2284  161.4501 O.2     1  UNL1       -0.1575
     14 O         137.5567  143.5012  164.4273 O.2     1  UNL1       -0.1575
     15 N         137.3896  141.8974  163.0490 N.3     1  UNL1       -0.1788
     16 H         136.6708  141.7927  163.7651 H       1  UNL1        0.1488
     17 C         138.4898  140.9389  163.3965 C.3     1  UNL1        0.1173
     18 C         139.5333  140.1781  167.7072 C.ar    1  UNL1        0.0684
     19 C         140.1843  141.3081  166.9661 C.ar    1  UNL1        0.0100
     20 C         139.8365  141.5617  165.5292 C.ar    1  UNL1       -0.0022
     21 C         138.8376  140.6853  164.8334 C.ar    1  UNL1       -0.0047
     22 C         138.1866  139.5553  165.5745 C.ar    1  UNL1       -0.0022
     23 C         138.5345  139.3017  167.0114 C.ar    1  UNL1        0.0100
     24 N         140.2290  139.6709  170.5810 N.1     1  UNL1       -0.1908
     25 C         139.8812  139.9245  169.1441 C.1     1  UNL1        0.1004
     26 C         145.5519  141.4111  163.5874 C.3     1  UNL1        0.0769
     27 C         145.4753  140.0655  164.2458 C.3     1  UNL1        0.0437
     28 C         144.1634  139.3426  164.3244 C.ar    1  UNL1       -0.0206
     29 C         143.5684  138.7319  163.0903 C.ar    1  UNL1       -0.0019
     30 C         142.2564  138.0090  163.1690 C.ar    1  UNL1        0.0293
     31 C         141.5394  137.8969  164.4817 C.ar    1  UNL1        0.1401
     32 F         140.2274  137.1740  164.5604 F       1  UNL1       -0.2042
     33 C         142.1344  138.5077  165.7158 C.ar    1  UNL1        0.0293
     34 C         143.4463  139.2305  165.6372 C.ar    1  UNL1       -0.0019
@<TRIPOS>BOND
     1    24    25    3
     2    25    18    1
     3    18    19   ar
     4    19    20   ar
     5    20    21   ar
     6    21    17    1
     7    17    15    1
     8    15    12    1
     9    12    13    2
    10    12    14    2
    11    12    11    1
    12    11    10    1
    13    10     1    1
    14     1     2    1
    15     2     3    1
    16     3     4    1
    17     4     5    1
    18     5    26    1
    19    26    27    1
    20    27    28    1
    21    28    29   ar
    22    29    30   ar
    23    30    31   ar
    24    31    32    1
    25    31    33   ar
    26    33    34   ar
    27     5     6    1
    28     6     7    1
    29     7     8    1
    30     7     9    1
    31    21    22   ar
    32    22    23   ar
    33    23    18   ar
    34     8     1    1
    35     9     3    1
    36    34    28   ar
    37    15    16    1
@<TRIPOS>MOLECULE
*****
 34 37 0 0 0
SMALL
GASTEIGER

@<TRIPOS>ATOM
      1 N         142.2826  142.9431  161.5178 N.3     1  UNL1       -0.2670
      2 C         141.5681  141.6293  161.4018 C.3     1  UNL1        0.1035
      3 C         141.5302  140.6905  162.5710 C.3     1  UNL1        0.1470
      4 C         141.4923  139.7516  163.7403 C.3     1  UNL1        0.1035
      5 N         142.1688  140.1265  165.0255 N.3     1  UNL1       -0.2682
      6 C         142.8833  141.4404  165.1414 C.3     1  UNL1        0.1035
      7 C         142.9212  142.3792  163.9722 C.3     1  UNL1        0.1470
      8 C         142.9592  143.3180  162.8030 C.3     1  UNL1        0.1035
      9 O         142.2068  141.0654  163.8562 O.3     1  UNL1       -0.3530
     10 C         142.3205  143.8820  160.3485 C.3     1  UNL1        0.0995
     11 C         141.0830  144.6271  159.9445 C.3     1  UNL1        0.1861
     12 S         139.9707  144.8246  160.9313 S.O2    1  UNL1        0.0425
     13 O         140.7776  145.8785  161.6300 O.2     1  UNL1       -0.1575
     14 O         139.1637  143.7707  160.2326 O.2     1  UNL1       -0.1575
     15 N         138.8584  145.0221  161.9181 N.3     1  UNL1       -0.1788
     16 H         138.5315  145.9817  161.8052 H       1  UNL1        0.1488
     17 C         139.1105  144.8199  163.3829 C.3     1  UNL1        0.1173
     18 C         138.4390  140.7787  165.2449 C.ar    1  UNL1        0.0684
     19 C         137.7796  141.1233  163.9424 C.ar    1  UNL1        0.0100
     20 C         138.0034  142.4703  163.3217 C.ar    1  UNL1       -0.0022
     21 C         138.8867  143.4729  164.0035 C.ar    1  UNL1       -0.0047
     22 C         139.5461  143.1283  165.3060 C.ar    1  UNL1       -0.0022
     23 C         139.3222  141.7812  165.9267 C.ar    1  UNL1        0.0100
     24 N         137.9912  138.0845  166.4863 N.1     1  UNL1       -0.1908
     25 C         138.2151  139.4317  165.8656 C.1     1  UNL1        0.1004
     26 C         142.1309  139.1877  166.1947 C.3     1  UNL1        0.0769
     27 C         142.6137  139.6446  167.5394 C.3     1  UNL1        0.0437
     28 C         141.7412  140.5164  168.3930 C.ar    1  UNL1       -0.0206
     29 C         142.1838  141.9060  168.7441 C.ar    1  UNL1       -0.0019
     30 C         141.3114  142.7779  169.5977 C.ar    1  UNL1        0.0293
     31 C         139.9963  142.2602  170.1003 C.ar    1  UNL1        0.1401
     32 F         139.1238  143.1320  170.9539 F       1  UNL1       -0.2042
     33 C         139.5537  140.8706  169.7492 C.ar    1  UNL1        0.0293
     34 C         140.4262  139.9988  168.8956 C.ar    1  UNL1       -0.0019
@<TRIPOS>BOND
     1    24    25    3
     2    25    18    1
     3    18    19   ar
     4    19    20   ar
     5    20    21   ar
     6    21    17    1
     7    17    15    1
     8    15    12    1
     9    12    13    2
    10    12    14    2
    11    12    11    1
    12    11    10    1
    13    10     1    1
    14     1     2    1
    15     2     3    1
    16     3     4    1
    17     4     5    1
    18     5    26    1
    19    26    27    1
    20    27    28    1
    21    28    29   ar
    22    29    30   ar
    23    30    31   ar
    24    31    32    1
    25    31    33   ar
    26    33    34   ar
    27     5     6    1
    28     6     7    1
    29     7     8    1
    30     7     9    1
    31    21    22   ar
    32    22    23   ar
    33    23    18   ar
    34     8     1    1
    35     9     3    1
    36    34    28   ar
    37    15    16    1
@<TRIPOS>MOLECULE
*****
 34 37 0 0 0
SMALL
GASTEIGER

@<TRIPOS>ATOM
      1 N         138.4002  140.8756  161.4748 N.3     1  UNL1       -0.2670
      2 C         138.2036  141.4781  162.8343 C.3     1  UNL1        0.1035
      3 C         139.0342  142.6516  163.2618 C.3     1  UNL1        0.1470
      4 C         139.8649  143.8252  163.6893 C.3     1  UNL1        0.1035
      5 N         140.8920  144.3964  162.7573 N.3     1  UNL1       -0.2682
      6 C         141.0886  143.7939  161.3977 C.3     1  UNL1        0.1035
      7 C         140.2580  142.6203  160.9702 C.3     1  UNL1        0.1470
      8 C         139.4273  141.4468  160.5427 C.3     1  UNL1        0.1035
      9 O         140.0614  143.2227  162.3297 O.3     1  UNL1       -0.3530
     10 C         137.5695  139.7020  161.0472 C.3     1  UNL1        0.0995
     11 C         137.7435  138.3742  161.7228 C.3     1  UNL1        0.1861
     12 S         139.0820  137.9837  162.2760 S.O2    1  UNL1        0.0425
     13 O         139.6420  137.9331  160.8854 O.2     1  UNL1       -0.1575
     14 O         138.5221  138.0344  163.6666 O.2     1  UNL1       -0.1575
     15 N         140.4205  137.5933  162.8292 N.3     1  UNL1       -0.1788
     16 H         140.2429  137.0539  163.6765 H       1  UNL1        0.1488
     17 C         141.4201  138.6515  163.1911 C.3     1  UNL1        0.1173
     18 C         142.4225  139.4167  167.5108 C.ar    1  UNL1        0.0684
     19 C         141.2090  140.0514  166.8986 C.ar    1  UNL1        0.0100
     20 C         140.8749  139.7963  165.4588 C.ar    1  UNL1       -0.0022
     21 C         141.7542  138.9066  164.6309 C.ar    1  UNL1       -0.0047
     22 C         142.9677  138.2720  165.2431 C.ar    1  UNL1       -0.0022
     23 C         143.3018  138.5271  166.6830 C.ar    1  UNL1        0.0100
     24 N         143.0908  139.9268  170.3906 N.1     1  UNL1       -0.1908
     25 C         142.7566  139.6718  168.9506 C.1     1  UNL1        0.1004
     26 C         141.7227  145.5699  163.1848 C.3     1  UNL1        0.0769
     27 C         143.0111  145.3487  163.9205 C.3     1  UNL1        0.0437
     28 C         143.6465  143.9900  163.9282 C.ar    1  UNL1       -0.0206
     29 C         143.4665  143.0846  165.1105 C.ar    1  UNL1       -0.0019
     30 C         144.1020  141.7258  165.1183 C.ar    1  UNL1        0.0293
     31 C         144.9175  141.2725  163.9437 C.ar    1  UNL1        0.1401
     32 F         145.5530  139.9139  163.9515 F       1  UNL1       -0.2042
     33 C         145.0975  142.1780  162.7614 C.ar    1  UNL1        0.0293
     34 C         144.4620  143.5367  162.7537 C.ar    1  UNL1       -0.0019
@<TRIPOS>BOND
     1    24    25    3
     2    25    18    1
     3    18    19   ar
     4    19    20   ar
     5    20    21   ar
     6    21    17    1
     7    17    15    1
     8    15    12    1
     9    12    13    2
    10    12    14    2
    11    12    11    1
    12    11    10    1
    13    10     1    1
    14     1     2    1
    15     2     3    1
    16     3     4    1
    17     4     5    1
    18     5    26    1
    19    26    27    1
    20    27    28    1
    21    28    29   ar
    22    29    30   ar
    23    30    31   ar
    24    31    32    1
    25    31    33   ar
    26    33    34   ar
    27     5     6    1
    28     6     7    1
    29     7     8    1
    30     7     9    1
    31    21    22   ar
    32    22    23   ar
    33    23    18   ar
    34     8     1    1
    35     9     3    1
    36    34    28   ar
    37    15    16    1
@<TRIPOS>MOLECULE
*****
 34 37 0 0 0
SMALL
GASTEIGER

@<TRIPOS>ATOM
      1 N         141.6488  141.1160  160.0751 N.3     1  UNL1       -0.2670
      2 C         140.2390  140.7453  160.4287 C.3     1  UNL1        0.1035
      3 C         139.6859  141.1002  161.7771 C.3     1  UNL1        0.1470
      4 C         139.1328  141.4551  163.1255 C.3     1  UNL1        0.1035
      5 N         139.9895  142.1807  164.1203 N.3     1  UNL1       -0.2682
      6 C         141.3994  142.5514  163.7666 C.3     1  UNL1        0.1035
      7 C         141.9524  142.1965  162.4182 C.3     1  UNL1        0.1470
      8 C         142.5055  141.8416  161.0699 C.3     1  UNL1        0.1035
      9 O         140.5427  141.8258  162.7718 O.3     1  UNL1       -0.3530
     10 C         142.2019  140.7611  158.7267 C.3     1  UNL1        0.0995
     11 C         142.8024  139.4062  158.4953 C.3     1  UNL1        0.1861
     12 S         142.9486  138.4455  159.6380 S.O2    1  UNL1        0.0425
     13 O         141.6222  137.8352  159.2947 O.2     1  UNL1       -0.1575
     14 O         144.2751  139.0558  159.9813 O.2     1  UNL1       -0.1575
     15 N         143.0949  137.4849  160.7807 N.3     1  UNL1       -0.1788
     16 H         142.2492  136.9149  160.7962 H       1  UNL1        0.1488
     17 C         143.2942  138.0021  162.1745 C.3     1  UNL1        0.1173
     18 C         139.7858  138.3398  164.9722 C.ar    1  UNL1        0.0684
     19 C         141.1183  138.9026  165.3690 C.ar    1  UNL1        0.0100
     20 C         142.2878  138.7901  164.4365 C.ar    1  UNL1       -0.0022
     21 C         142.1247  138.1147  163.1071 C.ar    1  UNL1       -0.0047
     22 C         140.7921  137.5518  162.7103 C.ar    1  UNL1       -0.0022
     23 C         139.6226  137.6644  163.6429 C.ar    1  UNL1        0.0100
     24 N         137.4468  138.5648  166.8374 N.1     1  UNL1       -0.1908
     25 C         138.6163  138.4523  165.9048 C.1     1  UNL1        0.1004
     26 C         139.4365  142.5356  165.4686 C.3     1  UNL1        0.0769
     27 C         140.3667  142.8792  166.5941 C.3     1  UNL1        0.0437
     28 C         140.8664  141.8014  167.5098 C.ar    1  UNL1       -0.0206
     29 C         139.8949  140.9975  168.3221 C.ar    1  UNL1       -0.0019
     30 C         140.3946  139.9196  169.2379 C.ar    1  UNL1        0.0293
     31 C         141.8657  139.6457  169.3413 C.ar    1  UNL1        0.1401
     32 F         142.3654  138.5678  170.2570 F       1  UNL1       -0.2042
     33 C         142.8372  140.4496  168.5289 C.ar    1  UNL1        0.0293
     34 C         142.3376  141.5275  167.6132 C.ar    1  UNL1       -0.0019
@<TRIPOS>BOND
     1    24    25    3
     2    25    18    1
     3    18    19   ar
     4    19    20   ar
     5    20    21   ar
     6    21    17    1
     7    17    15    1
     8    15    12    1
     9    12    13    2
    10    12    14    2
    11    12    11    1
    12    11    10    1
    13    10     1    1
    14     1     2    1
    15     2     3    1
    16     3     4    1
    17     4     5    1
    18     5    26    1
    19    26    27    1
    20    27    28    1
    21    28    29   ar
    22    29    30   ar
    23    30    31   ar
    24    31    32    1
    25    31    33   ar
    26    33    34   ar
    27     5     6    1
    28     6     7    1
    29     7     8    1
    30     7     9    1
    31    21    22   ar
    32    22    23   ar
    33    23    18   ar
    34     8     1    1
    35     9     3    1
    36    34    28   ar
    37    15    16    1
@<TRIPOS>MOLECULE
*****
 34 37 0 0 0
SMALL
GASTEIGER

@<TRIPOS>ATOM
      1 N         141.2453  138.3031  159.9701 N.3     1  UNL1       -0.2670
      2 C         142.1024  137.9013  161.1337 C.3     1  UNL1        0.1035
      3 C         141.4769  137.6449  162.4727 C.3     1  UNL1        0.1470
      4 C         140.8515  137.3885  163.8118 C.3     1  UNL1        0.1035
      5 N         139.3689  137.5338  163.9872 N.3     1  UNL1       -0.2682
      6 C         138.5117  137.9356  162.8236 C.3     1  UNL1        0.1035
      7 C         139.1372  138.1920  161.4846 C.3     1  UNL1        0.1470
      8 C         139.7627  138.4485  160.1456 C.3     1  UNL1        0.1035
      9 O         139.9943  137.7903  162.6481 O.3     1  UNL1       -0.3530
     10 C         141.8708  138.5596  158.6311 C.3     1  UNL1        0.0995
     11 C         142.0827  139.9677  158.1595 C.3     1  UNL1        0.1861
     12 S         142.9634  140.8961  158.9421 S.O2    1  UNL1        0.0425
     13 O         141.8044  141.8270  159.1422 O.2     1  UNL1       -0.1575
     14 O         144.1225  139.9652  158.7420 O.2     1  UNL1       -0.1575
     15 N         143.8442  141.8245  159.7246 N.3     1  UNL1       -0.1788
     16 H         144.7356  141.3458  159.8537 H       1  UNL1        0.1488
     17 C         143.4115  142.3064  161.0775 C.3     1  UNL1        0.1173
     18 C         143.7631  139.5937  164.6507 C.ar    1  UNL1        0.0684
     19 C         144.8268  139.5826  163.5931 C.ar    1  UNL1        0.0100
     20 C         144.7096  140.4868  162.4020 C.ar    1  UNL1       -0.0022
     21 C         143.5287  141.4022  162.2686 C.ar    1  UNL1       -0.0047
     22 C         142.4651  141.4133  163.3262 C.ar    1  UNL1       -0.0022
     23 C         142.5823  140.5090  164.5173 C.ar    1  UNL1        0.0100
     24 N         143.9975  137.7853  167.0329 N.1     1  UNL1       -0.1908
     25 C         143.8803  138.6895  165.8417 C.1     1  UNL1        0.1004
     26 C         138.7434  137.2774  165.3262 C.3     1  UNL1        0.0769
     27 C         138.0976  138.4020  166.0801 C.3     1  UNL1        0.0437
     28 C         138.6625  139.7885  165.9881 C.ar    1  UNL1       -0.0206
     29 C         139.6826  140.2505  166.9860 C.ar    1  UNL1       -0.0019
     30 C         140.2475  141.6370  166.8940 C.ar    1  UNL1        0.0293
     31 C         139.7924  142.5615  165.8039 C.ar    1  UNL1        0.1401
     32 F         140.3573  143.9480  165.7118 F       1  UNL1       -0.2042
     33 C         138.7723  142.0994  164.8059 C.ar    1  UNL1        0.0293
     34 C         138.2074  140.7129  164.8980 C.ar    1  UNL1       -0.0019
@<TRIPOS>BOND
     1    24    25    3
     2    25    18    1
     3    18    19   ar
     4    19    20   ar
     5    20    21   ar
     6    21    17    1
     7    17    15    1
     8    15    12    1
     9    12    13    2
    10    12    14    2
    11    12    11    1
    12    11    10    1
    13    10     1    1
    14     1     2    1
    15     2     3    1
    16     3     4    1
    17     4     5    1
    18     5    26    1
    19    26    27    1
    20    27    28    1
    21    28    29   ar
    22    29    30   ar
    23    30    31   ar
    24    31    32    1
    25    31    33   ar
    26    33    34   ar
    27     5     6    1
    28     6     7    1
    29     7     8    1
    30     7     9    1
    31    21    22   ar
    32    22    23   ar
    33    23    18   ar
    34     8     1    1
    35     9     3    1
    36    34    28   ar
    37    15    16    1
@<TRIPOS>MOLECULE
*****
 34 37 0 0 0
SMALL
GASTEIGER

@<TRIPOS>ATOM
      1 N         139.3051  142.3582  161.2725 N.3     1  UNL1       -0.2670
      2 C         139.9521  141.0053  161.3004 C.3     1  UNL1        0.1035
      3 C         140.0275  140.2363  162.5861 C.3     1  UNL1        0.1470
      4 C         140.1029  139.4674  163.8718 C.3     1  UNL1        0.1035
      5 N         139.5313  140.0514  165.1296 N.3     1  UNL1       -0.2682
      6 C         138.8842  141.4045  165.1017 C.3     1  UNL1        0.1035
      7 C         138.8088  142.1734  163.8160 C.3     1  UNL1        0.1470
      8 C         138.7334  142.9423  162.5303 C.3     1  UNL1        0.1035
      9 O         139.4559  140.8204  163.8439 O.3     1  UNL1       -0.3530
     10 C         139.2296  143.1272  159.9868 C.3     1  UNL1        0.0995
     11 C         140.0453  144.3735  159.8093 C.3     1  UNL1        0.1861
     12 S         141.2897  144.5775  160.6217 S.O2    1  UNL1        0.0425
     13 O         142.0036  143.5583  159.7842 O.2     1  UNL1       -0.1575
     14 O         140.5757  145.5967  161.4592 O.2     1  UNL1       -0.1575
     15 N         142.5340  144.7815  161.4341 N.3     1  UNL1       -0.1788
     16 H         143.2100  144.0867  161.1168 H       1  UNL1        0.1488
     17 C         142.4783  144.6801  162.9296 C.3     1  UNL1        0.1173
     18 C         143.2506  140.7328  164.9475 C.ar    1  UNL1        0.0684
     19 C         143.6123  140.9206  163.5039 C.ar    1  UNL1        0.0100
     20 C         143.3549  142.2364  162.8313 C.ar    1  UNL1       -0.0022
     21 C         142.7357  143.3644  163.6022 C.ar    1  UNL1       -0.0047
     22 C         142.3740  143.1766  165.0458 C.ar    1  UNL1       -0.0022
     23 C         142.6315  141.8607  165.7184 C.ar    1  UNL1        0.0100
     24 N         143.7655  138.1012  166.2928 N.1     1  UNL1       -0.1908
     25 C         143.5081  139.4170  165.6201 C.1     1  UNL1        0.1004
     26 C         139.6067  139.2825  166.4153 C.3     1  UNL1        0.0769
     27 C         139.3998  139.9866  167.7236 C.3     1  UNL1        0.0437
     28 C         140.5401  140.7136  168.3726 C.ar    1  UNL1       -0.0206
     29 C         141.7794  139.9658  168.7660 C.ar    1  UNL1       -0.0019
     30 C         142.9198  140.6927  169.4151 C.ar    1  UNL1        0.0293
     31 C         142.8207  142.1674  169.6708 C.ar    1  UNL1        0.1401
     32 F         143.9610  142.8943  170.3198 F       1  UNL1       -0.2042
     33 C         141.5813  142.9152  169.2774 C.ar    1  UNL1        0.0293
     34 C         140.4410  142.1883  168.6283 C.ar    1  UNL1       -0.0019
@<TRIPOS>BOND
     1    24    25    3
     2    25    18    1
     3    18    19   ar
     4    19    20   ar
     5    20    21   ar
     6    21    17    1
     7    17    15    1
     8    15    12    1
     9    12    13    2
    10    12    14    2
    11    12    11    1
    12    11    10    1
    13    10     1    1
    14     1     2    1
    15     2     3    1
    16     3     4    1
    17     4     5    1
    18     5    26    1
    19    26    27    1
    20    27    28    1
    21    28    29   ar
    22    29    30   ar
    23    30    31   ar
    24    31    32    1
    25    31    33   ar
    26    33    34   ar
    27     5     6    1
    28     6     7    1
    29     7     8    1
    30     7     9    1
    31    21    22   ar
    32    22    23   ar
    33    23    18   ar
    34     8     1    1
    35     9     3    1
    36    34    28   ar
    37    15    16    1
@<TRIPOS>MOLECULE
*****
 34 37 0 0 0
SMALL
GASTEIGER

@<TRIPOS>ATOM
      1 N         139.6985  140.6932  160.3654 N.3     1  UNL1       -0.2670
      2 C         140.7993  139.6804  160.2532 C.3     1  UNL1        0.1035
      3 C         142.2008  140.0502  160.6392 C.3     1  UNL1        0.1470
      4 C         143.6023  140.4198  161.0254 C.3     1  UNL1        0.1035
      5 N         143.9031  141.8023  161.5237 N.3     1  UNL1       -0.2682
      6 C         142.8022  142.8151  161.6359 C.3     1  UNL1        0.1035
      7 C         141.4008  142.4454  161.2498 C.3     1  UNL1        0.1470
      8 C         139.9993  142.0757  160.8637 C.3     1  UNL1        0.1035
      9 O         142.5015  141.4326  161.1376 O.3     1  UNL1       -0.3530
     10 C         138.2970  140.3235  159.9793 C.3     1  UNL1        0.0995
     11 C         137.3320  139.8473  161.0243 C.3     1  UNL1        0.1861
     12 S         137.6662  139.9992  162.4787 S.O2    1  UNL1        0.0425
     13 O         138.2353  138.6115  162.4929 O.2     1  UNL1       -0.1575
     14 O         137.0971  141.3869  162.4645 O.2     1  UNL1       -0.1575
     15 N         138.0004  140.1511  163.9331 N.3     1  UNL1       -0.1788
     16 H         137.1991  140.6031  164.3737 H       1  UNL1        0.1488
     17 C         139.2162  140.9265  164.3463 C.3     1  UNL1        0.1173
     18 C         140.0845  141.5917  168.7113 C.ar    1  UNL1        0.0684
     19 C         139.5745  140.2613  168.2423 C.ar    1  UNL1        0.0100
     20 C         139.2851  140.0395  166.7873 C.ar    1  UNL1       -0.0022
     21 C         139.5056  141.1482  165.8012 C.ar    1  UNL1       -0.0047
     22 C         140.0156  142.4786  166.2702 C.ar    1  UNL1       -0.0022
     23 C         140.3050  142.7003  167.7253 C.ar    1  UNL1        0.0100
     24 N         140.6634  142.0351  171.6213 N.1     1  UNL1       -0.1908
     25 C         140.3739  141.8134  170.1663 C.1     1  UNL1        0.1004
     26 C         145.3045  142.1720  161.9098 C.3     1  UNL1        0.0769
     27 C         145.8207  141.8312  163.2764 C.3     1  UNL1        0.0437
     28 C         144.9497  141.0840  164.2423 C.ar    1  UNL1       -0.0206
     29 C         144.0046  141.8331  165.1342 C.ar    1  UNL1       -0.0019
     30 C         143.1335  141.0859  166.1001 C.ar    1  UNL1        0.0293
     31 C         143.2076  139.5896  166.1741 C.ar    1  UNL1        0.1401
     32 F         142.3366  138.8424  167.1400 F       1  UNL1       -0.2042
     33 C         144.1528  138.8404  165.2821 C.ar    1  UNL1        0.0293
     34 C         145.0238  139.5877  164.3162 C.ar    1  UNL1       -0.0019
@<TRIPOS>BOND
     1    24    25    3
     2    25    18    1
     3    18    19   ar
     4    19    20   ar
     5    20    21   ar
     6    21    17    1
     7    17    15    1
     8    15    12    1
     9    12    13    2
    10    12    14    2
    11    12    11    1
    12    11    10    1
    13    10     1    1
    14     1     2    1
    15     2     3    1
    16     3     4    1
    17     4     5    1
    18     5    26    1
    19    26    27    1
    20    27    28    1
    21    28    29   ar
    22    29    30   ar
    23    30    31   ar
    24    31    32    1
    25    31    33   ar
    26    33    34   ar
    27     5     6    1
    28     6     7    1
    29     7     8    1
    30     7     9    1
    31    21    22   ar
    32    22    23   ar
    33    23    18   ar
    34     8     1    1
    35     9     3    1
    36    34    28   ar
    37    15    16    1
@<TRIPOS>MOLECULE
*****
 34 37 0 0 0
SMALL
GASTEIGER

@<TRIPOS>ATOM
      1 N         141.1491  144.3379  160.8386 N.3     1  UNL1       -0.2670
      2 C         142.5847  144.2199  161.2570 C.3     1  UNL1        0.1035
      3 C         143.2984  142.9070  161.1266 C.3     1  UNL1        0.1470
      4 C         144.0121  141.5941  160.9961 C.3     1  UNL1        0.1035
      5 N         143.2902  140.3993  160.4472 N.3     1  UNL1       -0.2682
      6 C         141.8545  140.5174  160.0288 C.3     1  UNL1        0.1035
      7 C         141.1409  141.8303  160.1592 C.3     1  UNL1        0.1470
      8 C         140.4272  143.1431  160.2897 C.3     1  UNL1        0.1035
      9 O         142.5764  141.7122  160.5777 O.3     1  UNL1       -0.3530
     10 C         140.4354  145.6508  160.9690 C.3     1  UNL1        0.0995
     11 C         139.5594  145.9134  162.1580 C.3     1  UNL1        0.1861
     12 S         139.2010  144.7921  163.0878 S.O2    1  UNL1        0.0425
     13 O         137.9372  144.5554  162.3153 O.2     1  UNL1       -0.1575
     14 O         140.4647  145.0288  163.8603 O.2     1  UNL1       -0.1575
     15 N         138.8427  143.6709  164.0175 N.3     1  UNL1       -0.1788
     16 H         138.5228  144.0995  164.8861 H       1  UNL1        0.1488
     17 C         139.8747  142.6492  164.3932 C.3     1  UNL1        0.1173
     18 C         139.8067  140.7826  168.4873 C.ar    1  UNL1        0.0684
     19 C         140.4298  142.1326  168.2887 C.ar    1  UNL1        0.0100
     20 C         140.4525  142.7548  166.9241 C.ar    1  UNL1       -0.0022
     21 C         139.8520  142.0270  165.7579 C.ar    1  UNL1       -0.0047
     22 C         139.2289  140.6771  165.9564 C.ar    1  UNL1       -0.0022
     23 C         139.2062  140.0549  167.3212 C.ar    1  UNL1        0.0100
     24 N         139.7614  139.5382  171.2166 N.1     1  UNL1       -0.1908
     25 C         139.7840  140.1604  169.8519 C.1     1  UNL1        0.1004
     26 C         144.0039  139.0865  160.3168 C.3     1  UNL1        0.0769
     27 C         143.7608  137.9978  161.3197 C.3     1  UNL1        0.0437
     28 C         143.4089  138.3470  162.7353 C.ar    1  UNL1       -0.0206
     29 C         144.3959  139.0805  163.5943 C.ar    1  UNL1       -0.0019
     30 C         144.0441  139.4298  165.0100 C.ar    1  UNL1        0.0293
     31 C         142.7052  139.0456  165.5667 C.ar    1  UNL1        0.1401
     32 F         142.3534  139.3948  166.9824 F       1  UNL1       -0.2042
     33 C         141.7182  138.3120  164.7077 C.ar    1  UNL1        0.0293
     34 C         142.0701  137.9628  163.2920 C.ar    1  UNL1       -0.0019
@<TRIPOS>BOND
     1    24    25    3
     2    25    18    1
     3    18    19   ar
     4    19    20   ar
     5    20    21   ar
     6    21    17    1
     7    17    15    1
     8    15    12    1
     9    12    13    2
    10    12    14    2
    11    12    11    1
    12    11    10    1
    13    10     1    1
    14     1     2    1
    15     2     3    1
    16     3     4    1
    17     4     5    1
    18     5    26    1
    19    26    27    1
    20    27    28    1
    21    28    29   ar
    22    29    30   ar
    23    30    31   ar
    24    31    32    1
    25    31    33   ar
    26    33    34   ar
    27     5     6    1
    28     6     7    1
    29     7     8    1
    30     7     9    1
    31    21    22   ar
    32    22    23   ar
    33    23    18   ar
    34     8     1    1
    35     9     3    1
    36    34    28   ar
    37    15    16    1
@<TRIPOS>MOLECULE
*****
 34 37 0 0 0
SMALL
GASTEIGER

@<TRIPOS>ATOM
      1 N         139.3065  142.1035  159.8527 N.3     1  UNL1       -0.2670
      2 C         139.0013  142.3836  161.2943 C.3     1  UNL1        0.1035
      3 C         139.0224  141.2673  162.2959 C.3     1  UNL1        0.1470
      4 C         139.0434  140.1509  163.2977 C.3     1  UNL1        0.1035
      5 N         139.3696  138.7545  162.8577 N.3     1  UNL1       -0.2682
      6 C         139.6747  138.4744  161.4160 C.3     1  UNL1        0.1035
      7 C         139.6537  139.5907  160.4143 C.3     1  UNL1        0.1470
      8 C         139.6327  140.7071  159.4127 C.3     1  UNL1        0.1035
      9 O         139.3486  139.8708  161.8560 O.3     1  UNL1       -0.3530
     10 C         139.2855  143.2198  158.8509 C.3     1  UNL1        0.0995
     11 C         140.4590  144.1470  158.7365 C.3     1  UNL1        0.1861
     12 S         141.0014  144.8249  159.9598 S.O2    1  UNL1        0.0425
     13 O         139.7330  145.6157  160.0840 O.2     1  UNL1       -0.1575
     14 O         142.2699  144.0340  159.8355 O.2     1  UNL1       -0.1575
     15 N         141.5439  145.5027  161.1830 N.3     1  UNL1       -0.1788
     16 H         142.3039  144.9181  161.5309 H       1  UNL1        0.1488
     17 C         140.6420  145.7797  162.3491 C.3     1  UNL1        0.1173
     18 C         140.4136  142.8550  165.7615 C.ar    1  UNL1        0.0684
     19 C         141.6317  142.8936  164.8870 C.ar    1  UNL1        0.0100
     20 C         141.7079  143.8685  163.7496 C.ar    1  UNL1       -0.0022
     21 C         140.5658  144.8048  163.4865 C.ar    1  UNL1       -0.0047
     22 C         139.3477  144.7662  164.3610 C.ar    1  UNL1       -0.0022
     23 C         139.2716  143.7913  165.4985 C.ar    1  UNL1        0.0100
     24 N         140.2613  140.9052  168.0364 N.1     1  UNL1       -0.1908
     25 C         140.3374  141.8801  166.8989 C.1     1  UNL1        0.1004
     26 C         139.3906  137.6382  163.8594 C.3     1  UNL1        0.0769
     27 C         140.6986  137.1337  164.3928 C.3     1  UNL1        0.0437
     28 C         141.8965  138.0361  164.4180 C.ar    1  UNL1       -0.0206
     29 C         142.2100  138.8322  165.6501 C.ar    1  UNL1       -0.0019
     30 C         143.4079  139.7347  165.6753 C.ar    1  UNL1        0.0293
     31 C         144.2923  139.8411  164.4684 C.ar    1  UNL1        0.1401
     32 F         145.4901  140.7435  164.4936 F       1  UNL1       -0.2042
     33 C         143.9787  139.0450  163.2363 C.ar    1  UNL1        0.0293
     34 C         142.7809  138.1425  163.2111 C.ar    1  UNL1       -0.0019
@<TRIPOS>BOND
     1    24    25    3
     2    25    18    1
     3    18    19   ar
     4    19    20   ar
     5    20    21   ar
     6    21    17    1
     7    17    15    1
     8    15    12    1
     9    12    13    2
    10    12    14    2
    11    12    11    1
    12    11    10    1
    13    10     1    1
    14     1     2    1
    15     2     3    1
    16     3     4    1
    17     4     5    1
    18     5    26    1
    19    26    27    1
    20    27    28    1
    21    28    29   ar
    22    29    30   ar
    23    30    31   ar
    24    31    32    1
    25    31    33   ar
    26    33    34   ar
    27     5     6    1
    28     6     7    1
    29     7     8    1
    30     7     9    1
    31    21    22   ar
    32    22    23   ar
    33    23    18   ar
    34     8     1    1
    35     9     3    1
    36    34    28   ar
    37    15    16    1
