@<TRIPOS>MOLECULE
*****
 31 34 0 0 0
SMALL
GASTEIGER

@<TRIPOS>ATOM
      1 C         139.7455  144.5968  161.7452 C.ar    1  UNL1        0.1412
      2 C         138.6457  144.7342  162.7559 C.ar    1  UNL1        0.0710
      3 S         139.1450  144.1894  164.0613 S.2     1  UNL1       -0.0670
      4 C         140.5535  143.7153  163.8572 C.ar    1  UNL1        0.1122
      5 N         140.9245  143.9671  162.4258 N.ar    1  UNL1       -0.2259
      6 C         141.4359  143.0978  164.9013 C.3     1  UNL1        0.1549
      7 C         139.9633  142.8127  164.8998 C.3     1  UNL1        0.1705
      8 O         139.3730  141.9102  165.9424 O.3     1  UNL1       -0.3538
      9 C         140.2554  141.2927  166.9864 C.3     1  UNL1        0.1155
     10 C         139.6651  140.3902  168.0291 C.3     1  UNL1        0.0320
     11 C         141.7281  141.5778  166.9879 C.3     1  UNL1        0.0328
     12 C         142.3183  142.4803  165.9453 C.3     1  UNL1        0.0426
     13 C         143.7910  142.7653  165.9468 C.3     1  UNL1        0.0673
     14 S         144.3812  143.6679  164.9042 S.3     1  UNL1       -0.0807
     15 C         143.4988  144.2854  163.8601 C.2     1  UNL1        0.1483
     16 N         144.0891  145.1879  162.8175 N.pl3   1  UNL1       -0.3380
     17 N         142.0262  144.0003  163.8586 N.2     1  UNL1       -0.2464
     18 H         145.0557  145.3750  162.8184 H       1  UNL1        0.1442
     19 H         143.5100  145.5932  162.1322 H       1  UNL1        0.1442
     20 C         140.9365  145.1280  159.4982 C.2     1  UNL1        0.2506
     21 O         142.2626  144.8216  160.1286 O.2     1  UNL1       -0.2698
     22 N         139.6780  145.0156  160.3065 N.am    1  UNL1       -0.2654
     23 H         138.8076  145.2167  159.8927 H       1  UNL1        0.1566
     24 C         140.7338  146.3846  155.1819 C.ar    1  UNL1        0.1387
     25 C         139.6769  146.8373  156.1453 C.ar    1  UNL1        0.0370
     26 C         139.7445  146.4185  157.5840 C.ar    1  UNL1        0.0076
     27 C         140.8690  145.5469  158.0594 C.ar    1  UNL1        0.0539
     28 C         141.9258  145.0941  157.0960 C.ar    1  UNL1        0.0076
     29 C         141.8582  145.5130  155.6572 C.ar    1  UNL1        0.0370
     30 C         140.4830  148.2499  153.3910 C.3     1  UNL1        0.2525
     31 O         140.6661  146.8034  153.7432 O.3     1  UNL1       -0.4714
@<TRIPOS>BOND
     1    30    31    1
     2    31    24    1
     3    24    25   ar
     4    25    26   ar
     5    26    27   ar
     6    27    20    1
     7    20    21    2
     8    20    22   am
     9    22     1    1
    10     1     2   ar
    11     2     3   ar
    12     3     4   ar
    13     6     4    1
    14     6     7    1
    15     7     8    1
    16     8     9    1
    17     9    10    1
    18     9    11    1
    19    12    11    1
    20    12    13    1
    21    13    14    1
    22    14    15    1
    23    15    16    1
    24    15    17    2
    25     4     5   ar
    26    27    28   ar
    27    28    29   ar
    28    29    24   ar
    29     5     1   ar
    30    12     6    1
    31    17     6    1
    32    22    23    1
    33    16    18    1
    34    16    19    1
@<TRIPOS>MOLECULE
*****
 31 34 0 0 0
SMALL
GASTEIGER

@<TRIPOS>ATOM
      1 C         141.4648  145.0996  161.1446 C.ar    1  UNL1        0.1412
      2 C         140.5058  145.5474  162.2075 C.ar    1  UNL1        0.0710
      3 S         140.8114  144.7813  163.4603 S.2     1  UNL1       -0.0670
      4 C         141.9594  143.8599  163.1717 C.ar    1  UNL1        0.1122
      5 N         142.3632  144.0566  161.7406 N.ar    1  UNL1       -0.2259
      6 C         142.5924  142.9088  164.1437 C.3     1  UNL1        0.1549
      7 C         141.2989  143.5846  164.4900 C.3     1  UNL1        0.1705
      8 O         140.6384  143.3093  165.8083 O.3     1  UNL1       -0.3538
      9 C         141.2714  142.3582  166.7802 C.3     1  UNL1        0.1155
     10 C         140.6108  142.0829  168.0985 C.3     1  UNL1        0.0320
     11 C         142.5649  141.6824  166.4339 C.3     1  UNL1        0.0328
     12 C         143.2255  141.9577  165.1156 C.3     1  UNL1        0.0426
     13 C         144.5191  141.2819  164.7693 C.3     1  UNL1        0.0673
     14 S         145.1796  141.5572  163.4510 S.3     1  UNL1       -0.0807
     15 C         144.5466  142.5083  162.4791 C.2     1  UNL1        0.1483
     16 N         145.2072  142.7836  161.1607 N.pl3   1  UNL1       -0.3380
     17 N         143.2530  143.1841  162.8254 N.2     1  UNL1       -0.2464
     18 H         146.0562  142.3400  160.9334 H       1  UNL1        0.1442
     19 H         144.7917  143.4078  160.5228 H       1  UNL1        0.1442
     20 C         140.5149  145.1231  158.7266 C.2     1  UNL1        0.2506
     21 O         139.4619  144.1343  159.1305 O.2     1  UNL1       -0.2698
     22 N         141.5163  145.6058  159.7336 N.am    1  UNL1       -0.2654
     23 H         142.2074  146.2548  159.4684 H       1  UNL1        0.1566
     24 C         140.6696  146.6420  154.4934 C.ar    1  UNL1        0.1387
     25 C         139.6497  147.1868  155.4489 C.ar    1  UNL1        0.0370
     26 C         139.5981  146.6805  156.8599 C.ar    1  UNL1        0.0076
     27 C         140.5665  145.6294  157.3155 C.ar    1  UNL1        0.0539
     28 C         141.5864  145.0846  156.3601 C.ar    1  UNL1        0.0076
     29 C         141.6380  145.5910  154.9490 C.ar    1  UNL1        0.0370
     30 C         140.5258  148.6088  152.8021 C.3     1  UNL1        0.2525
     31 O         140.7212  147.1483  153.0825 O.3     1  UNL1       -0.4714
@<TRIPOS>BOND
     1    30    31    1
     2    31    24    1
     3    24    25   ar
     4    25    26   ar
     5    26    27   ar
     6    27    20    1
     7    20    21    2
     8    20    22   am
     9    22     1    1
    10     1     2   ar
    11     2     3   ar
    12     3     4   ar
    13     6     4    1
    14     6     7    1
    15     7     8    1
    16     8     9    1
    17     9    10    1
    18     9    11    1
    19    12    11    1
    20    12    13    1
    21    13    14    1
    22    14    15    1
    23    15    16    1
    24    15    17    2
    25     4     5   ar
    26    27    28   ar
    27    28    29   ar
    28    29    24   ar
    29     5     1   ar
    30    12     6    1
    31    17     6    1
    32    22    23    1
    33    16    18    1
    34    16    19    1
@<TRIPOS>MOLECULE
*****
 31 34 0 0 0
SMALL
GASTEIGER

@<TRIPOS>ATOM
      1 C         140.7756  144.0630  162.8655 C.ar    1  UNL1        0.1412
      2 C         140.0020  145.2673  162.4169 C.ar    1  UNL1        0.0710
      3 S         140.3255  145.5147  160.9732 S.2     1  UNL1       -0.0670
      4 C         141.2991  144.4632  160.5296 C.ar    1  UNL1        0.1122
      5 N         141.5772  143.5661  161.6991 N.ar    1  UNL1       -0.2259
      6 C         141.8906  144.3321  159.1574 C.3     1  UNL1        0.1549
      7 C         140.7198  145.2415  159.3856 C.3     1  UNL1        0.1705
      8 O         140.1405  146.0197  158.2416 O.3     1  UNL1       -0.3538
      9 C         140.7320  145.8885  156.8694 C.3     1  UNL1        0.1155
     10 C         140.1526  146.6668  155.7254 C.3     1  UNL1        0.0320
     11 C         141.9028  144.9791  156.6412 C.3     1  UNL1        0.0328
     12 C         142.4821  144.2009  157.7852 C.3     1  UNL1        0.0426
     13 C         143.6530  143.2914  157.5570 C.3     1  UNL1        0.0673
     14 S         144.2323  142.5132  158.7010 S.3     1  UNL1       -0.0807
     15 C         143.6408  142.6444  160.0732 C.2     1  UNL1        0.1483
     16 N         144.2201  141.8661  161.2172 N.pl3   1  UNL1       -0.3380
     17 N         142.4700  143.5538  160.3014 N.2     1  UNL1       -0.2464
     18 H         144.9886  141.2692  161.0674 H       1  UNL1        0.1442
     19 H         143.8319  141.9522  162.1178 H       1  UNL1        0.1442
     20 C         139.8729  142.2799  164.5255 C.2     1  UNL1        0.2506
     21 O         139.0180  141.7002  163.4380 O.2     1  UNL1       -0.2698
     22 N         140.7518  143.4613  164.2393 N.am    1  UNL1       -0.2654
     23 H         141.3130  143.8418  164.9531 H       1  UNL1        0.1566
     24 C         139.8016  140.4750  168.6471 C.ar    1  UNL1        0.1387
     25 C         140.3992  141.8342  168.4338 C.ar    1  UNL1        0.0370
     26 C         140.4230  142.4359  167.0600 C.ar    1  UNL1        0.0076
     27 C         139.8491  141.6783  165.8994 C.ar    1  UNL1        0.0539
     28 C         139.2515  140.3191  166.1127 C.ar    1  UNL1        0.0076
     29 C         139.2278  139.7175  167.4866 C.ar    1  UNL1        0.0370
     30 C         140.6509  140.4380  171.1021 C.3     1  UNL1        0.2525
     31 O         139.7778  139.8735  170.0209 O.3     1  UNL1       -0.4714
@<TRIPOS>BOND
     1    30    31    1
     2    31    24    1
     3    24    25   ar
     4    25    26   ar
     5    26    27   ar
     6    27    20    1
     7    20    21    2
     8    20    22   am
     9    22     1    1
    10     1     2   ar
    11     2     3   ar
    12     3     4   ar
    13     6     4    1
    14     6     7    1
    15     7     8    1
    16     8     9    1
    17     9    10    1
    18     9    11    1
    19    12    11    1
    20    12    13    1
    21    13    14    1
    22    14    15    1
    23    15    16    1
    24    15    17    2
    25     4     5   ar
    26    27    28   ar
    27    28    29   ar
    28    29    24   ar
    29     5     1   ar
    30    12     6    1
    31    17     6    1
    32    22    23    1
    33    16    18    1
    34    16    19    1
@<TRIPOS>MOLECULE
*****
 31 34 0 0 0
SMALL
GASTEIGER

@<TRIPOS>ATOM
      1 C         139.2041  141.3656  160.7588 C.ar    1  UNL1        0.1412
      2 C         138.4168  140.5768  159.7548 C.ar    1  UNL1        0.0710
      3 S         138.3931  141.3527  158.4712 S.2     1  UNL1       -0.0670
      4 C         139.1658  142.6211  158.6820 C.ar    1  UNL1        0.1122
      5 N         139.6669  142.6290  160.0958 N.ar    1  UNL1       -0.2259
      6 C         139.3966  143.6932  157.6587 C.3     1  UNL1        0.1549
      7 C         138.2868  142.7021  157.4692 C.3     1  UNL1        0.1705
      8 O         137.4079  142.7831  156.2565 O.3     1  UNL1       -0.3538
      9 C         137.6388  143.8552  155.2331 C.3     1  UNL1        0.1155
     10 C         136.7597  143.9362  154.0203 C.3     1  UNL1        0.0320
     11 C         138.7486  144.8463  155.4225 C.3     1  UNL1        0.0328
     12 C         139.6275  144.7653  156.6353 C.3     1  UNL1        0.0426
     13 C         140.7374  145.7565  156.8248 C.3     1  UNL1        0.0673
     14 S         141.6164  145.6755  158.0375 S.3     1  UNL1       -0.0807
     15 C         141.3855  144.6034  159.0609 C.2     1  UNL1        0.1483
     16 N         142.2645  144.5224  160.2737 N.pl3   1  UNL1       -0.3380
     17 N         140.2757  143.6122  158.8715 N.2     1  UNL1       -0.2464
     18 H         142.9929  145.1729  160.3980 H       1  UNL1        0.1442
     19 H         142.1130  143.8187  160.9454 H       1  UNL1        0.1442
     20 C         138.4535  141.2127  163.2413 C.2     1  UNL1        0.2506
     21 O         137.1510  141.8672  162.8879 O.2     1  UNL1       -0.2698
     22 N         139.4800  140.9619  162.1768 N.am    1  UNL1       -0.2654
     23 H         140.3349  140.5323  162.4088 H       1  UNL1        0.1566
     24 C         139.2814  140.0012  167.4954 C.ar    1  UNL1        0.1387
     25 C         138.4215  139.1356  166.6229 C.ar    1  UNL1        0.0370
     26 C         138.1455  139.5394  165.2049 C.ar    1  UNL1        0.0076
     27 C         138.7295  140.8089  164.6593 C.ar    1  UNL1        0.0539
     28 C         139.5894  141.6745  165.5318 C.ar    1  UNL1        0.0076
     29 C         139.8654  141.2706  166.9499 C.ar    1  UNL1        0.0370
     30 C         139.3977  140.5951  170.0220 C.3     1  UNL1        0.2525
     31 O         139.5574  139.5974  168.9134 O.3     1  UNL1       -0.4714
@<TRIPOS>BOND
     1    30    31    1
     2    31    24    1
     3    24    25   ar
     4    25    26   ar
     5    26    27   ar
     6    27    20    1
     7    20    21    2
     8    20    22   am
     9    22     1    1
    10     1     2   ar
    11     2     3   ar
    12     3     4   ar
    13     6     4    1
    14     6     7    1
    15     7     8    1
    16     8     9    1
    17     9    10    1
    18     9    11    1
    19    12    11    1
    20    12    13    1
    21    13    14    1
    22    14    15    1
    23    15    16    1
    24    15    17    2
    25     4     5   ar
    26    27    28   ar
    27    28    29   ar
    28    29    24   ar
    29     5     1   ar
    30    12     6    1
    31    17     6    1
    32    22    23    1
    33    16    18    1
    34    16    19    1
@<TRIPOS>MOLECULE
*****
 31 34 0 0 0
SMALL
GASTEIGER

@<TRIPOS>ATOM
      1 C         141.7367  144.4389  161.4904 C.ar    1  UNL1        0.1412
      2 C         141.5640  145.1564  162.7963 C.ar    1  UNL1        0.0710
      3 S         141.6403  144.1403  163.8972 S.2     1  UNL1       -0.0670
      4 C         141.8603  142.7948  163.2716 C.ar    1  UNL1        0.1122
      5 N         141.9198  142.9793  161.7842 N.ar    1  UNL1       -0.2259
      6 C         141.9967  141.4933  164.0047 C.3     1  UNL1        0.1549
      7 C         140.6556  142.1565  163.8970 C.3     1  UNL1        0.1705
      8 O         139.4509  141.5182  164.5225 O.3     1  UNL1       -0.3538
      9 C         139.5873  140.2167  165.2557 C.3     1  UNL1        0.1155
     10 C         138.3826  139.5783  165.8812 C.3     1  UNL1        0.0320
     11 C         140.9284  139.5535  165.3633 C.3     1  UNL1        0.0328
     12 C         142.1331  140.1918  164.7378 C.3     1  UNL1        0.0426
     13 C         143.4743  139.5286  164.8455 C.3     1  UNL1        0.0673
     14 S         144.6789  140.1669  164.2200 S.3     1  UNL1       -0.0807
     15 C         144.5425  141.4684  163.4869 C.2     1  UNL1        0.1483
     16 N         145.7473  142.1067  162.8614 N.pl3   1  UNL1       -0.3380
     17 N         143.2015  142.1316  163.3792 N.2     1  UNL1       -0.2464
     18 H         146.6275  141.6714  162.9320 H       1  UNL1        0.1442
     19 H         145.6578  142.9610  162.3802 H       1  UNL1        0.1442
     20 C         140.5667  144.8468  159.2069 C.2     1  UNL1        0.2506
     21 O         139.4143  143.9922  159.6446 O.2     1  UNL1       -0.2698
     22 N         141.7279  145.0701  160.1298 N.am    1  UNL1       -0.2654
     23 H         142.4843  145.6310  159.8424 H       1  UNL1        0.1566
     24 C         140.5405  146.7406  155.1248 C.ar    1  UNL1        0.1387
     25 C         141.5400  145.6699  155.4485 C.ar    1  UNL1        0.0370
     26 C         141.5487  145.0386  156.8092 C.ar    1  UNL1        0.0076
     27 C         140.5579  145.4780  157.8462 C.ar    1  UNL1        0.0539
     28 C         139.5585  146.5487  157.5226 C.ar    1  UNL1        0.0076
     29 C         139.5497  147.1800  156.1618 C.ar    1  UNL1        0.0370
     30 C         140.0013  148.7635  153.5864 C.3     1  UNL1        0.2525
     31 O         140.5318  147.3718  153.7642 O.3     1  UNL1       -0.4714
@<TRIPOS>BOND
     1    30    31    1
     2    31    24    1
     3    24    25   ar
     4    25    26   ar
     5    26    27   ar
     6    27    20    1
     7    20    21    2
     8    20    22   am
     9    22     1    1
    10     1     2   ar
    11     2     3   ar
    12     3     4   ar
    13     6     4    1
    14     6     7    1
    15     7     8    1
    16     8     9    1
    17     9    10    1
    18     9    11    1
    19    12    11    1
    20    12    13    1
    21    13    14    1
    22    14    15    1
    23    15    16    1
    24    15    17    2
    25     4     5   ar
    26    27    28   ar
    27    28    29   ar
    28    29    24   ar
    29     5     1   ar
    30    12     6    1
    31    17     6    1
    32    22    23    1
    33    16    18    1
    34    16    19    1
@<TRIPOS>MOLECULE
*****
 31 34 0 0 0
SMALL
GASTEIGER

@<TRIPOS>ATOM
      1 C         142.8688  143.9260  162.6479 C.ar    1  UNL1        0.1412
      2 C         144.0001  144.2961  163.5606 C.ar    1  UNL1        0.0710
      3 S         144.0376  143.2988  164.6805 S.2     1  UNL1       -0.0670
      4 C         142.9294  142.3122  164.4597 C.ar    1  UNL1        0.1122
      5 N         142.2071  142.6999  163.2035 N.ar    1  UNL1       -0.2259
      6 C         142.6012  141.1432  165.3405 C.3     1  UNL1        0.1549
      7 C         143.1389  142.4078  165.9419 C.3     1  UNL1        0.1705
      8 O         143.3484  142.5034  167.4241 O.3     1  UNL1       -0.3538
      9 C         143.0202  141.3344  168.3049 C.3     1  UNL1        0.1155
     10 C         143.2297  141.4301  169.7871 C.3     1  UNL1        0.0320
     11 C         142.4825  140.0699  167.7035 C.3     1  UNL1        0.0328
     12 C         142.2730  139.9743  166.2213 C.3     1  UNL1        0.0426
     13 C         141.7353  138.7096  165.6198 C.3     1  UNL1        0.0673
     14 S         141.5258  138.6140  164.1376 S.3     1  UNL1       -0.0807
     15 C         141.8540  139.7830  163.2568 C.2     1  UNL1        0.1483
     16 N         141.6445  139.6873  161.7745 N.pl3   1  UNL1       -0.3380
     17 N         142.3917  141.0476  163.8582 N.2     1  UNL1       -0.2464
     18 H         141.2916  138.8573  161.3798 H       1  UNL1        0.1442
     19 H         141.8600  140.4546  161.1964 H       1  UNL1        0.1442
     20 C         142.0838  143.8826  160.1717 C.2     1  UNL1        0.2506
     21 O         142.0976  142.3829  160.1935 O.2     1  UNL1       -0.2698
     22 N         142.4695  144.6542  161.3988 N.am    1  UNL1       -0.2654
     23 H         142.4604  145.6385  161.3844 H       1  UNL1        0.1566
     24 C         140.8856  146.0674  156.4245 C.ar    1  UNL1        0.1387
     25 C         140.0375  146.1719  157.6573 C.ar    1  UNL1        0.0370
     26 C         140.4368  145.4436  158.9063 C.ar    1  UNL1        0.0076
     27 C         141.6844  144.6109  158.9226 C.ar    1  UNL1        0.0539
     28 C         142.5326  144.5064  157.6898 C.ar    1  UNL1        0.0076
     29 C         142.1331  145.2347  156.4407 C.ar    1  UNL1        0.0370
     30 C         139.1294  147.4278  155.0772 C.3     1  UNL1        0.2525
     31 O         140.4862  146.7957  155.1755 O.3     1  UNL1       -0.4714
@<TRIPOS>BOND
     1    30    31    1
     2    31    24    1
     3    24    25   ar
     4    25    26   ar
     5    26    27   ar
     6    27    20    1
     7    20    21    2
     8    20    22   am
     9    22     1    1
    10     1     2   ar
    11     2     3   ar
    12     3     4   ar
    13     6     4    1
    14     6     7    1
    15     7     8    1
    16     8     9    1
    17     9    10    1
    18     9    11    1
    19    12    11    1
    20    12    13    1
    21    13    14    1
    22    14    15    1
    23    15    16    1
    24    15    17    2
    25     4     5   ar
    26    27    28   ar
    27    28    29   ar
    28    29    24   ar
    29     5     1   ar
    30    12     6    1
    31    17     6    1
    32    22    23    1
    33    16    18    1
    34    16    19    1
@<TRIPOS>MOLECULE
*****
 31 34 0 0 0
SMALL
GASTEIGER

@<TRIPOS>ATOM
      1 C         138.8513  143.3936  161.9741 C.ar    1  UNL1        0.1412
      2 C         138.0087  144.1984  162.9187 C.ar    1  UNL1        0.0710
      3 S         138.0690  143.5435  164.2668 S.2     1  UNL1       -0.0670
      4 C         138.9491  142.3338  164.1554 C.ar    1  UNL1        0.1122
      5 N         139.4325  142.2412  162.7385 N.ar    1  UNL1       -0.2259
      6 C         139.2864  141.3836  165.2660 C.3     1  UNL1        0.1549
      7 C         139.5038  142.8566  165.4472 C.3     1  UNL1        0.1705
      8 O         140.0586  143.3794  166.7391 O.3     1  UNL1       -0.3538
      9 C         140.3959  142.4292  167.8496 C.3     1  UNL1        0.1155
     10 C         140.9507  142.9521  169.1415 C.3     1  UNL1        0.0320
     11 C         140.1785  140.9562  167.6684 C.3     1  UNL1        0.0328
     12 C         139.6237  140.4334  166.3765 C.3     1  UNL1        0.0426
     13 C         139.4063  138.9603  166.1952 C.3     1  UNL1        0.0673
     14 S         138.8515  138.4375  164.9034 S.3     1  UNL1       -0.0807
     15 C         138.5142  139.3877  163.7928 C.2     1  UNL1        0.1483
     16 N         137.9594  138.8648  162.5009 N.pl3   1  UNL1       -0.3380
     17 N         138.7316  140.8607  163.9741 N.2     1  UNL1       -0.2464
     18 H         137.8167  137.8980  162.3819 H       1  UNL1        0.1442
     19 H         137.7380  139.4884  161.7720 H       1  UNL1        0.1442
     20 C         140.3162  144.4065  160.0826 C.2     1  UNL1        0.2506
     21 O         141.3364  144.8279  161.0982 O.2     1  UNL1       -0.2698
     22 N         139.0737  143.6893  160.5206 N.am    1  UNL1       -0.2654
     23 H         138.4041  143.4127  159.8539 H       1  UNL1        0.1566
     24 C         140.9832  145.2935  155.7215 C.ar    1  UNL1        0.1387
     25 C         139.8790  144.3676  156.1383 C.ar    1  UNL1        0.0370
     26 C         139.6567  144.0719  157.5919 C.ar    1  UNL1        0.0076
     27 C         140.5386  144.7021  158.6289 C.ar    1  UNL1        0.0539
     28 C         141.6427  145.6280  158.2122 C.ar    1  UNL1        0.0076
     29 C         141.8650  145.9237  156.7584 C.ar    1  UNL1        0.0370
     30 C         140.7536  146.8979  153.6911 C.3     1  UNL1        0.2525
     31 O         141.2054  145.5891  154.2679 O.3     1  UNL1       -0.4714
@<TRIPOS>BOND
     1    30    31    1
     2    31    24    1
     3    24    25   ar
     4    25    26   ar
     5    26    27   ar
     6    27    20    1
     7    20    21    2
     8    20    22   am
     9    22     1    1
    10     1     2   ar
    11     2     3   ar
    12     3     4   ar
    13     6     4    1
    14     6     7    1
    15     7     8    1
    16     8     9    1
    17     9    10    1
    18     9    11    1
    19    12    11    1
    20    12    13    1
    21    13    14    1
    22    14    15    1
    23    15    16    1
    24    15    17    2
    25     4     5   ar
    26    27    28   ar
    27    28    29   ar
    28    29    24   ar
    29     5     1   ar
    30    12     6    1
    31    17     6    1
    32    22    23    1
    33    16    18    1
    34    16    19    1
@<TRIPOS>MOLECULE
*****
 31 34 0 0 0
SMALL
GASTEIGER

@<TRIPOS>ATOM
      1 C         138.9960  143.3978  161.9003 C.ar    1  UNL1        0.1412
      2 C         138.8172  144.6897  162.6412 C.ar    1  UNL1        0.0710
      3 S         139.6733  144.6406  163.8719 S.2     1  UNL1       -0.0670
      4 C         140.3814  143.3183  163.8916 C.ar    1  UNL1        0.1122
      5 N         139.9628  142.5503  162.6730 N.ar    1  UNL1       -0.2259
      6 C         141.3398  142.8470  164.9448 C.3     1  UNL1        0.1549
      7 C         139.9066  142.4061  164.9835 C.3     1  UNL1        0.1705
      8 O         139.4317  141.4938  166.0754 O.3     1  UNL1       -0.3538
      9 C         140.3901  141.0225  167.1286 C.3     1  UNL1        0.1155
     10 C         139.9152  140.1102  168.2206 C.3     1  UNL1        0.0320
     11 C         141.8233  141.4633  167.0900 C.3     1  UNL1        0.0328
     12 C         142.2981  142.3756  165.9981 C.3     1  UNL1        0.0426
     13 C         143.7314  142.8165  165.9594 C.3     1  UNL1        0.0673
     14 S         144.2062  143.7287  164.8675 S.3     1  UNL1       -0.0807
     15 C         143.2478  144.2001  163.8142 C.2     1  UNL1        0.1483
     16 N         143.7228  145.1124  162.7223 N.pl3   1  UNL1       -0.3380
     17 N         141.8147  143.7593  163.8529 N.2     1  UNL1       -0.2464
     18 H         144.6634  145.4018  162.6969 H       1  UNL1        0.1442
     19 H         143.0938  145.4218  162.0310 H       1  UNL1        0.1442
     20 C         139.1295  142.9192  159.3502 C.2     1  UNL1        0.2506
     21 O         140.6033  143.1966  159.3752 O.2     1  UNL1       -0.2698
     22 N         138.3258  143.0198  160.6127 N.am    1  UNL1       -0.2654
     23 H         137.3585  142.8378  160.5963 H       1  UNL1        0.1566
     24 C         137.1186  141.7853  155.4874 C.ar    1  UNL1        0.1387
     25 C         137.8926  143.0667  155.5821 C.ar    1  UNL1        0.0370
     26 C         138.5629  143.4447  156.8696 C.ar    1  UNL1        0.0076
     27 C         138.4592  142.5413  158.0626 C.ar    1  UNL1        0.0539
     28 C         137.6852  141.2599  157.9680 C.ar    1  UNL1        0.0076
     29 C         137.0149  140.8819  156.6803 C.ar    1  UNL1        0.0370
     30 C         135.4794  140.2629  154.1664 C.3     1  UNL1        0.2525
     31 O         136.4484  141.4074  154.1998 O.3     1  UNL1       -0.4714
@<TRIPOS>BOND
     1    30    31    1
     2    31    24    1
     3    24    25   ar
     4    25    26   ar
     5    26    27   ar
     6    27    20    1
     7    20    21    2
     8    20    22   am
     9    22     1    1
    10     1     2   ar
    11     2     3   ar
    12     3     4   ar
    13     6     4    1
    14     6     7    1
    15     7     8    1
    16     8     9    1
    17     9    10    1
    18     9    11    1
    19    12    11    1
    20    12    13    1
    21    13    14    1
    22    14    15    1
    23    15    16    1
    24    15    17    2
    25     4     5   ar
    26    27    28   ar
    27    28    29   ar
    28    29    24   ar
    29     5     1   ar
    30    12     6    1
    31    17     6    1
    32    22    23    1
    33    16    18    1
    34    16    19    1
@<TRIPOS>MOLECULE
*****
 31 34 0 0 0
SMALL
GASTEIGER

@<TRIPOS>ATOM
      1 C         138.3072  140.7519  162.6646 C.ar    1  UNL1        0.1412
      2 C         137.9097  139.5144  161.9159 C.ar    1  UNL1        0.0710
      3 S         137.9621  139.8232  160.4489 S.2     1  UNL1       -0.0670
      4 C         138.3920  141.2516  160.2910 C.ar    1  UNL1        0.1122
      5 N         138.6053  141.8255  161.6604 N.ar    1  UNL1       -0.2259
      6 C         138.5763  141.9784  158.9919 C.3     1  UNL1        0.1549
      7 C         137.7369  140.7364  159.0439 C.3     1  UNL1        0.1705
      8 O         137.0817  140.2213  157.7968 O.3     1  UNL1       -0.3538
      9 C         137.2659  140.9481  156.4977 C.3     1  UNL1        0.1155
     10 C         136.6107  140.4328  155.2506 C.3     1  UNL1        0.0320
     11 C         138.1054  142.1901  156.4456 C.3     1  UNL1        0.0328
     12 C         138.7605  142.7052  157.6927 C.3     1  UNL1        0.0426
     13 C         139.6000  143.9473  157.6407 C.3     1  UNL1        0.0673
     14 S         140.2552  144.4625  158.8878 S.3     1  UNL1       -0.0807
     15 C         140.0710  143.7357  160.1870 C.2     1  UNL1        0.1483
     16 N         140.7262  144.2509  161.4341 N.pl3   1  UNL1       -0.3380
     17 N         139.2315  142.4937  160.2390 N.2     1  UNL1       -0.2464
     18 H         141.2772  145.0661  161.3999 H       1  UNL1        0.1442
     19 H         140.6053  143.7739  162.2868 H       1  UNL1        0.1442
     20 C         139.7287  140.8774  164.8356 C.2     1  UNL1        0.2506
     21 O         140.9811  140.7243  164.0246 O.2     1  UNL1       -0.2698
     22 N         138.3918  140.8912  164.1557 N.am    1  UNL1       -0.2654
     23 H         137.5698  140.9917  164.6880 H       1  UNL1        0.1566
     24 C         139.9821  141.2954  169.3091 C.ar    1  UNL1        0.1387
     25 C         139.4115  140.0473  168.7035 C.ar    1  UNL1        0.0370
     26 C         139.3270  139.9080  167.2124 C.ar    1  UNL1        0.0076
     27 C         139.8132  141.0168  166.3267 C.ar    1  UNL1        0.0539
     28 C         140.3839  142.2649  166.9323 C.ar    1  UNL1        0.0076
     29 C         140.4683  142.4042  168.4235 C.ar    1  UNL1        0.0370
     30 C         141.3848  141.7290  171.4525 C.3     1  UNL1        0.2525
     31 O         140.0666  141.4347  170.8001 O.3     1  UNL1       -0.4714
@<TRIPOS>BOND
     1    30    31    1
     2    31    24    1
     3    24    25   ar
     4    25    26   ar
     5    26    27   ar
     6    27    20    1
     7    20    21    2
     8    20    22   am
     9    22     1    1
    10     1     2   ar
    11     2     3   ar
    12     3     4   ar
    13     6     4    1
    14     6     7    1
    15     7     8    1
    16     8     9    1
    17     9    10    1
    18     9    11    1
    19    12    11    1
    20    12    13    1
    21    13    14    1
    22    14    15    1
    23    15    16    1
    24    15    17    2
    25     4     5   ar
    26    27    28   ar
    27    28    29   ar
    28    29    24   ar
    29     5     1   ar
    30    12     6    1
    31    17     6    1
    32    22    23    1
    33    16    18    1
    34    16    19    1
