@<TRIPOS>MOLECULE
*****
 31 35 0 0 0
SMALL
GASTEIGER

@<TRIPOS>ATOM
      1 C         143.3437  134.7237  156.6138 C.ar    1  UNL1        0.2326
      2 N         143.1129  135.7917  157.6415 N.ar    1  UNL1       -0.2080
      3 C         142.9246  137.0944  156.9221 C.ar    1  UNL1        0.1232
      4 C         142.6638  138.4860  157.4175 C.ar    1  UNL1        0.0741
      5 C         142.5173  139.6147  156.4406 C.ar    1  UNL1        0.0062
      6 C         142.6318  139.3519  154.9683 C.ar    1  UNL1        0.0034
      7 C         142.8926  137.9603  154.4728 C.ar    1  UNL1        0.0391
      8 C         143.0390  136.8316  155.4498 C.ar    1  UNL1        0.1649
      9 O         143.2980  135.3664  155.2592 O.2     1  UNL1       -0.4345
     10 C         142.6226  132.2402  156.3644 C.ar    1  UNL1        0.1432
     11 C         142.8577  130.7851  156.6424 C.ar    1  UNL1        0.0371
     12 C         144.0490  130.3583  157.4477 C.ar    1  UNL1        0.0031
     13 C         145.0052  131.3867  157.9751 C.ar    1  UNL1        0.0004
     14 C         144.7701  132.8418  157.6971 C.ar    1  UNL1        0.0077
     15 C         143.5788  133.2686  156.8918 C.ar    1  UNL1        0.0874
     16 C         141.4286  132.4856  154.0700 C.3     1  UNL1        0.2525
     17 O         141.4313  132.6670  155.5590 O.3     1  UNL1       -0.4713
     18 C         142.5493  138.7488  158.8899 C.2     1  UNL1        0.2474
     19 O         141.9894  140.0520  159.3779 O.2     1  UNL1       -0.2701
     20 N         142.9949  137.7083  159.8743 N.am    1  UNL1       -0.3024
     21 H         143.3624  136.8530  159.5540 H       1  UNL1        0.1497
     22 C         142.8805  137.9711  161.3466 C.3     1  UNL1        0.0745
     23 C         141.6374  137.5720  162.0853 C.3     1  UNL1        0.0356
     24 C         141.5230  137.8348  163.5577 C.3     1  UNL1        0.0591
     25 C         141.4086  138.0975  165.0300 C.3     1  UNL1        0.0161
     26 C         142.5372  138.7593  165.7637 C.3     1  UNL1        0.0028
     27 C         143.7802  139.1583  165.0251 C.3     1  UNL1        0.0161
     28 C         143.8946  138.8956  163.5527 C.3     1  UNL1        0.0591
     29 C         144.0091  138.6328  162.0803 C.3     1  UNL1        0.0356
     30 N         142.7660  138.2338  162.8190 N.3     1  UNL1       -0.2740
     31 C         143.0011  138.1771  162.0594 C.3     1  UNL1        0.0896
@<TRIPOS>BOND
     1    16    17    1
     2    17    10    1
     3    10    11   ar
     4    11    12   ar
     5    12    13   ar
     6    13    14   ar
     7    14    15   ar
     8    15     1    1
     9     1     2   ar
    10     2     3   ar
    11     3     4   ar
    12     4    18    1
    13    18    19    2
    14    18    20   am
    15    22    20    1
    16    22    23    1
    17    24    23    1
    18    24    25    1
    19    25    26    1
    20    26    27    1
    21    28    27    1
    22    28    29    1
    23    28    30    1
    24    30    31    1
    25     4     5   ar
    26     5     6   ar
    27     6     7   ar
    28     7     8   ar
    29     8     9   ar
    30    15    10   ar
    31     9     1   ar
    32     8     3   ar
    33    29    22    1
    34    30    24    1
    35    20    21    1
@<TRIPOS>MOLECULE
*****
 31 35 0 0 0
SMALL
GASTEIGER

@<TRIPOS>ATOM
      1 C         141.3422  138.8212  160.3109 C.ar    1  UNL1        0.2326
      2 N         141.9987  138.0025  159.2391 N.ar    1  UNL1       -0.2080
      3 C         142.2933  138.9076  158.0797 C.ar    1  UNL1        0.1232
      4 C         142.9323  138.6549  156.7463 C.ar    1  UNL1        0.0741
      5 C         143.0969  139.7802  155.7682 C.ar    1  UNL1        0.0062
      6 C         142.6226  141.1581  156.1235 C.ar    1  UNL1        0.0034
      7 C         141.9836  141.4108  157.4569 C.ar    1  UNL1        0.0391
      8 C         141.8190  140.2855  158.4350 C.ar    1  UNL1        0.1649
      9 O         141.2312  140.2321  159.8139 O.2     1  UNL1       -0.4345
     10 C         141.8814  137.9047  162.6815 C.ar    1  UNL1        0.1432
     11 C         141.4175  137.4009  164.0160 C.ar    1  UNL1        0.0371
     12 C         139.9504  137.3098  164.3145 C.ar    1  UNL1        0.0031
     13 C         138.9472  137.7225  163.2785 C.ar    1  UNL1        0.0004
     14 C         139.4111  138.2263  161.9440 C.ar    1  UNL1        0.0077
     15 C         140.8782  138.3174  161.6455 C.ar    1  UNL1        0.0874
     16 C         144.1653  139.1098  162.9678 C.3     1  UNL1        0.2525
     17 O         143.3486  137.9958  162.3829 O.3     1  UNL1       -0.4713
     18 C         143.4067  137.2769  156.3910 C.2     1  UNL1        0.2474
     19 O         144.6860  137.0974  155.6288 O.2     1  UNL1       -0.2701
     20 N         142.6016  136.0785  156.7980 N.am    1  UNL1       -0.3024
     21 H         141.7619  136.1963  157.2982 H       1  UNL1        0.1497
     22 C         143.0759  134.7005  156.4427 C.3     1  UNL1        0.0745
     23 C         142.6765  134.0837  155.1350 C.3     1  UNL1        0.0356
     24 C         143.1508  132.7058  154.7797 C.3     1  UNL1        0.0591
     25 C         143.6251  131.3278  154.4245 C.3     1  UNL1        0.0161
     26 C         144.4988  130.5666  155.3769 C.3     1  UNL1        0.0028
     27 C         144.8983  131.1833  156.6846 C.3     1  UNL1        0.0161
     28 C         144.4240  132.5613  157.0399 C.3     1  UNL1        0.0591
     29 C         143.9497  133.9393  157.3952 C.3     1  UNL1        0.0356
     30 N         143.5502  133.3225  156.0874 N.3     1  UNL1       -0.2740
     31 C         143.4002  134.0223  156.4384 C.3     1  UNL1        0.0896
@<TRIPOS>BOND
     1    16    17    1
     2    17    10    1
     3    10    11   ar
     4    11    12   ar
     5    12    13   ar
     6    13    14   ar
     7    14    15   ar
     8    15     1    1
     9     1     2   ar
    10     2     3   ar
    11     3     4   ar
    12     4    18    1
    13    18    19    2
    14    18    20   am
    15    22    20    1
    16    22    23    1
    17    24    23    1
    18    24    25    1
    19    25    26    1
    20    26    27    1
    21    28    27    1
    22    28    29    1
    23    28    30    1
    24    30    31    1
    25     4     5   ar
    26     5     6   ar
    27     6     7   ar
    28     7     8   ar
    29     8     9   ar
    30    15    10   ar
    31     9     1   ar
    32     8     3   ar
    33    29    22    1
    34    30    24    1
    35    20    21    1
@<TRIPOS>MOLECULE
*****
 31 35 0 0 0
SMALL
GASTEIGER

@<TRIPOS>ATOM
      1 C         138.5357  140.2651  159.2525 C.ar    1  UNL1        0.2326
      2 N         137.3902  140.2100  158.2856 N.ar    1  UNL1       -0.2080
      3 C         137.8618  140.7688  156.9759 C.ar    1  UNL1        0.1232
      4 C         137.1684  140.9647  155.6603 C.ar    1  UNL1        0.0741
      5 C         137.9120  141.5610  154.5021 C.ar    1  UNL1        0.0062
      6 C         139.3489  141.9614  154.6595 C.ar    1  UNL1        0.0034
      7 C         140.0423  141.7655  155.9750 C.ar    1  UNL1        0.0391
      8 C         139.2988  141.1692  157.1333 C.ar    1  UNL1        0.1649
      9 O         139.7152  140.8579  158.5402 O.2     1  UNL1       -0.4345
     10 C         138.0616  140.7486  161.7608 C.ar    1  UNL1        0.1432
     11 C         138.0327  140.2913  163.1890 C.ar    1  UNL1        0.0371
     12 C         138.4488  138.8929  163.5373 C.ar    1  UNL1        0.0031
     13 C         138.8940  137.9519  162.4573 C.ar    1  UNL1        0.0004
     14 C         138.9229  138.4093  161.0290 C.ar    1  UNL1        0.0077
     15 C         138.5067  139.8076  160.6808 C.ar    1  UNL1        0.0874
     16 C         137.8603  143.2602  162.3947 C.3     1  UNL1        0.2525
     17 O         137.6454  142.1471  161.4124 O.3     1  UNL1       -0.4713
     18 C         135.7314  140.5643  155.5029 C.2     1  UNL1        0.2474
     19 O         135.1852  140.2497  154.1418 O.2     1  UNL1       -0.2701
     20 N         134.8406  140.4785  156.7067 N.am    1  UNL1       -0.3024
     21 H         135.1991  140.6850  157.6001 H       1  UNL1        0.1497
     22 C         133.4037  140.0781  156.5495 C.3     1  UNL1        0.0745
     23 C         132.3950  141.0779  156.0667 C.3     1  UNL1        0.0356
     24 C         130.9580  140.6775  155.9094 C.3     1  UNL1        0.0591
     25 C         129.5211  140.2771  155.7521 C.3     1  UNL1        0.0161
     26 C         129.0927  138.8769  156.0776 C.3     1  UNL1        0.0028
     27 C         130.1013  137.8771  156.5603 C.3     1  UNL1        0.0161
     28 C         131.5382  138.2775  156.7176 C.3     1  UNL1        0.0591
     29 C         132.9753  138.6779  156.8749 C.3     1  UNL1        0.0356
     30 N         131.9666  139.6777  156.3921 N.3     1  UNL1       -0.2740
     31 C         132.7507  139.7060  156.5333 C.3     1  UNL1        0.0896
@<TRIPOS>BOND
     1    16    17    1
     2    17    10    1
     3    10    11   ar
     4    11    12   ar
     5    12    13   ar
     6    13    14   ar
     7    14    15   ar
     8    15     1    1
     9     1     2   ar
    10     2     3   ar
    11     3     4   ar
    12     4    18    1
    13    18    19    2
    14    18    20   am
    15    22    20    1
    16    22    23    1
    17    24    23    1
    18    24    25    1
    19    25    26    1
    20    26    27    1
    21    28    27    1
    22    28    29    1
    23    28    30    1
    24    30    31    1
    25     4     5   ar
    26     5     6   ar
    27     6     7   ar
    28     7     8   ar
    29     8     9   ar
    30    15    10   ar
    31     9     1   ar
    32     8     3   ar
    33    29    22    1
    34    30    24    1
    35    20    21    1
@<TRIPOS>MOLECULE
*****
 31 35 0 0 0
SMALL
GASTEIGER

@<TRIPOS>ATOM
      1 C         143.1284  139.4335  160.3360 C.ar    1  UNL1        0.2326
      2 N         143.3018  138.3518  159.3115 N.ar    1  UNL1       -0.2080
      3 C         143.0456  138.9486  157.9594 C.ar    1  UNL1        0.1232
      4 C         143.0716  138.3586  156.5805 C.ar    1  UNL1        0.0741
      5 C         142.7658  139.2191  155.3906 C.ar    1  UNL1        0.0062
      6 C         142.4342  140.6697  155.5795 C.ar    1  UNL1        0.0034
      7 C         142.4083  141.2598  156.9584 C.ar    1  UNL1        0.0391
      8 C         142.7140  140.3992  158.1483 C.ar    1  UNL1        0.1649
      9 O         142.7651  140.6989  159.6171 O.2     1  UNL1       -0.4345
     10 C         142.3962  138.3405  162.5764 C.ar    1  UNL1        0.1432
     11 C         142.5576  138.1843  164.0595 C.ar    1  UNL1        0.0371
     12 C         143.6129  138.9650  164.7853 C.ar    1  UNL1        0.0031
     13 C         144.5067  139.9019  164.0280 C.ar    1  UNL1        0.0004
     14 C         144.3452  140.0580  162.5450 C.ar    1  UNL1        0.0077
     15 C         143.2899  139.2774  161.8192 C.ar    1  UNL1        0.0874
     16 C         139.8957  137.9329  162.0003 C.3     1  UNL1        0.2525
     17 O         141.3408  137.5598  161.8505 O.3     1  UNL1       -0.4713
     18 C         143.4032  136.9079  156.3917 C.2     1  UNL1        0.2474
     19 O         144.5517  136.5094  155.5130 O.2     1  UNL1       -0.2701
     20 N         142.5863  135.8558  157.0815 N.am    1  UNL1       -0.3024
     21 H         141.8325  136.1175  157.6582 H       1  UNL1        0.1497
     22 C         142.9179  134.4052  156.8927 C.3     1  UNL1        0.0745
     23 C         144.0168  133.7762  157.6970 C.3     1  UNL1        0.0356
     24 C         144.3484  132.3255  157.5082 C.3     1  UNL1        0.0591
     25 C         144.6800  130.8749  157.3193 C.3     1  UNL1        0.0161
     26 C         143.9128  130.0533  156.3262 C.3     1  UNL1        0.0028
     27 C         142.8140  130.6823  155.5219 C.3     1  UNL1        0.0161
     28 C         142.4824  132.1329  155.7107 C.3     1  UNL1        0.0591
     29 C         142.1508  133.5836  155.8995 C.3     1  UNL1        0.0356
     30 N         143.2496  132.9545  156.7038 N.3     1  UNL1       -0.2740
     31 C         142.9401  133.6883  156.6678 C.3     1  UNL1        0.0896
@<TRIPOS>BOND
     1    16    17    1
     2    17    10    1
     3    10    11   ar
     4    11    12   ar
     5    12    13   ar
     6    13    14   ar
     7    14    15   ar
     8    15     1    1
     9     1     2   ar
    10     2     3   ar
    11     3     4   ar
    12     4    18    1
    13    18    19    2
    14    18    20   am
    15    22    20    1
    16    22    23    1
    17    24    23    1
    18    24    25    1
    19    25    26    1
    20    26    27    1
    21    28    27    1
    22    28    29    1
    23    28    30    1
    24    30    31    1
    25     4     5   ar
    26     5     6   ar
    27     6     7   ar
    28     7     8   ar
    29     8     9   ar
    30    15    10   ar
    31     9     1   ar
    32     8     3   ar
    33    29    22    1
    34    30    24    1
    35    20    21    1
@<TRIPOS>MOLECULE
*****
 31 35 0 0 0
SMALL
GASTEIGER

@<TRIPOS>ATOM
      1 C         140.1242  141.7491  161.0393 C.ar    1  UNL1        0.2326
      2 N         140.2308  141.4673  162.5087 N.ar    1  UNL1       -0.2080
      3 C         139.6341  140.1153  162.7658 C.ar    1  UNL1        0.1232
      4 C         139.4622  139.3169  164.0240 C.ar    1  UNL1        0.0741
      5 C         138.8150  137.9647  163.9717 C.ar    1  UNL1        0.0062
      6 C         138.3397  137.4110  162.6612 C.ar    1  UNL1        0.0034
      7 C         138.5116  138.2094  161.4030 C.ar    1  UNL1        0.0391
      8 C         139.1588  139.5615  161.4553 C.ar    1  UNL1        0.1649
      9 O         139.4617  140.5713  160.3883 O.2     1  UNL1       -0.4345
     10 C         139.9379  144.3077  160.6280 C.ar    1  UNL1        0.1432
     11 C         140.4108  145.5493  159.9318 C.ar    1  UNL1        0.0371
     12 C         141.5429  145.4741  158.9507 C.ar    1  UNL1        0.0031
     13 C         142.2021  144.1572  158.6658 C.ar    1  UNL1        0.0004
     14 C         141.7293  142.9155  159.3619 C.ar    1  UNL1        0.0077
     15 C         140.5971  142.9908  160.3430 C.ar    1  UNL1        0.0874
     16 C         139.0527  144.8800  163.0027 C.3     1  UNL1        0.2525
     17 O         138.8057  144.3829  161.6091 O.3     1  UNL1       -0.4713
     18 C         139.9375  139.8707  165.3345 C.2     1  UNL1        0.2474
     19 O         139.4989  139.2353  166.6205 O.2     1  UNL1       -0.2701
     20 N         140.8513  141.0599  165.3589 N.am    1  UNL1       -0.3024
     21 H         141.1391  141.4770  164.5149 H       1  UNL1        0.1497
     22 C         141.3266  141.6138  166.6694 C.3     1  UNL1        0.0745
     23 C         140.4172  142.4767  167.4931 C.3     1  UNL1        0.0356
     24 C         140.8925  143.0305  168.8035 C.3     1  UNL1        0.0591
     25 C         141.3678  143.5843  170.1140 C.3     1  UNL1        0.0161
     26 C         142.7526  143.2753  170.6008 C.3     1  UNL1        0.0028
     27 C         143.6620  142.4124  169.7772 C.3     1  UNL1        0.0161
     28 C         143.1867  141.8586  168.4668 C.3     1  UNL1        0.0591
     29 C         142.7114  141.3047  167.1562 C.3     1  UNL1        0.0356
     30 N         141.8019  142.1676  167.9799 N.3     1  UNL1       -0.2740
     31 C         141.7272  141.7950  167.2792 C.3     1  UNL1        0.0896
@<TRIPOS>BOND
     1    16    17    1
     2    17    10    1
     3    10    11   ar
     4    11    12   ar
     5    12    13   ar
     6    13    14   ar
     7    14    15   ar
     8    15     1    1
     9     1     2   ar
    10     2     3   ar
    11     3     4   ar
    12     4    18    1
    13    18    19    2
    14    18    20   am
    15    22    20    1
    16    22    23    1
    17    24    23    1
    18    24    25    1
    19    25    26    1
    20    26    27    1
    21    28    27    1
    22    28    29    1
    23    28    30    1
    24    30    31    1
    25     4     5   ar
    26     5     6   ar
    27     6     7   ar
    28     7     8   ar
    29     8     9   ar
    30    15    10   ar
    31     9     1   ar
    32     8     3   ar
    33    29    22    1
    34    30    24    1
    35    20    21    1
@<TRIPOS>MOLECULE
*****
 31 35 0 0 0
SMALL
GASTEIGER

@<TRIPOS>ATOM
      1 C         139.4692  143.4816  160.9495 C.ar    1  UNL1        0.2326
      2 N         139.6496  144.4167  159.7905 N.ar    1  UNL1       -0.2080
      3 C         139.8373  143.5900  158.5529 C.ar    1  UNL1        0.1232
      4 C         140.0585  143.9672  157.1181 C.ar    1  UNL1        0.0741
      5 C         140.2153  142.8984  156.0773 C.ar    1  UNL1        0.0062
      6 C         140.1508  141.4526  156.4714 C.ar    1  UNL1        0.0034
      7 C         139.9296  141.0755  157.9062 C.ar    1  UNL1        0.0391
      8 C         139.7728  142.1442  158.9470 C.ar    1  UNL1        0.1649
      9 O         139.5453  142.0772  160.4281 O.2     1  UNL1       -0.4345
     10 C         140.4132  144.3144  163.2223 C.ar    1  UNL1        0.1432
     11 C         140.1950  144.7136  164.6516 C.ar    1  UNL1        0.0371
     12 C         138.8146  144.6795  165.2374 C.ar    1  UNL1        0.0031
     13 C         137.6524  144.2460  164.3940 C.ar    1  UNL1        0.0004
     14 C         137.8705  143.8467  162.9647 C.ar    1  UNL1        0.0077
     15 C         139.2509  143.8809  162.3788 C.ar    1  UNL1        0.0874
     16 C         142.6929  143.1549  162.7653 C.3     1  UNL1        0.2525
     17 O         141.7936  144.3486  162.6363 O.3     1  UNL1       -0.4713
     18 C         140.1230  145.4131  156.7240 C.2     1  UNL1        0.2474
     19 O         141.2890  146.2552  157.1497 O.2     1  UNL1       -0.2701
     20 N         139.0214  146.0168  155.9042 N.am    1  UNL1       -0.3024
     21 H         138.2561  145.4641  155.6248 H       1  UNL1        0.1497
     22 C         139.0858  147.4627  155.5102 C.3     1  UNL1        0.0745
     23 C         139.7622  147.8624  154.2323 C.3     1  UNL1        0.0356
     24 C         139.8266  149.3082  153.8382 C.3     1  UNL1        0.0591
     25 C         139.8910  150.7540  153.4441 C.3     1  UNL1        0.0161
     26 C         139.2791  151.8003  154.3279 C.3     1  UNL1        0.0028
     27 C         138.6028  151.4006  155.6057 C.3     1  UNL1        0.0161
     28 C         138.5384  149.9548  155.9998 C.3     1  UNL1        0.0591
     29 C         138.4739  148.5089  156.3939 C.3     1  UNL1        0.0356
     30 N         139.1503  148.9086  155.1160 N.3     1  UNL1       -0.2740
     31 C         139.0214  148.2110  155.4797 C.3     1  UNL1        0.0896
@<TRIPOS>BOND
     1    16    17    1
     2    17    10    1
     3    10    11   ar
     4    11    12   ar
     5    12    13   ar
     6    13    14   ar
     7    14    15   ar
     8    15     1    1
     9     1     2   ar
    10     2     3   ar
    11     3     4   ar
    12     4    18    1
    13    18    19    2
    14    18    20   am
    15    22    20    1
    16    22    23    1
    17    24    23    1
    18    24    25    1
    19    25    26    1
    20    26    27    1
    21    28    27    1
    22    28    29    1
    23    28    30    1
    24    30    31    1
    25     4     5   ar
    26     5     6   ar
    27     6     7   ar
    28     7     8   ar
    29     8     9   ar
    30    15    10   ar
    31     9     1   ar
    32     8     3   ar
    33    29    22    1
    34    30    24    1
    35    20    21    1
@<TRIPOS>MOLECULE
*****
 31 35 0 0 0
SMALL
GASTEIGER

@<TRIPOS>ATOM
      1 C         140.8980  141.0304  164.8898 C.ar    1  UNL1        0.2326
      2 N         140.7389  141.9396  163.7075 N.ar    1  UNL1       -0.2080
      3 C         141.8361  142.9613  163.7575 C.ar    1  UNL1        0.1232
      4 C         142.1810  144.1087  162.8550 C.ar    1  UNL1        0.0741
      5 C         143.3630  144.9783  163.1657 C.ar    1  UNL1        0.0062
      6 C         144.2002  144.7004  164.3789 C.ar    1  UNL1        0.0034
      7 C         143.8553  143.5530  165.2814 C.ar    1  UNL1        0.0391
      8 C         142.6733  142.6835  164.9707 C.ar    1  UNL1        0.1649
      9 O         142.0935  141.4901  165.6705 O.2     1  UNL1       -0.4345
     10 C         140.2090  138.5503  164.5370 C.ar    1  UNL1        0.1432
     11 C         139.3275  137.3858  164.8787 C.ar    1  UNL1        0.0371
     12 C         138.2534  137.5368  165.9148 C.ar    1  UNL1        0.0031
     13 C         138.0609  138.8523  166.6092 C.ar    1  UNL1        0.0004
     14 C         138.9424  140.0168  166.2676 C.ar    1  UNL1        0.0077
     15 C         140.0165  139.8658  165.2315 C.ar    1  UNL1        0.0874
     16 C         140.9503  138.5582  162.0470 C.3     1  UNL1        0.2525
     17 O         141.2831  138.3993  163.5009 O.3     1  UNL1       -0.4713
     18 C         141.3438  144.3866  161.6418 C.2     1  UNL1        0.2474
     19 O         139.9049  144.7806  161.7976 O.2     1  UNL1       -0.2701
     20 N         141.9455  144.2704  160.2727 N.am    1  UNL1       -0.3024
     21 H         142.8899  144.0117  160.1704 H       1  UNL1        0.1497
     22 C         141.1083  144.5482  159.0594 C.3     1  UNL1        0.0745
     23 C         141.0961  145.9209  158.4549 C.3     1  UNL1        0.0356
     24 C         140.2590  146.1988  157.2417 C.3     1  UNL1        0.0591
     25 C         139.4218  146.4766  156.0284 C.3     1  UNL1        0.0161
     26 C         138.5968  145.3817  155.4197 C.3     1  UNL1        0.0028
     27 C         138.6089  144.0090  156.0242 C.3     1  UNL1        0.0161
     28 C         139.4461  143.7311  157.2375 C.3     1  UNL1        0.0591
     29 C         140.2833  143.4533  158.4507 C.3     1  UNL1        0.0356
     30 N         140.2711  144.8260  157.8462 N.3     1  UNL1       -0.2740
     31 C         140.6425  144.4996  158.4715 C.3     1  UNL1        0.0896
@<TRIPOS>BOND
     1    16    17    1
     2    17    10    1
     3    10    11   ar
     4    11    12   ar
     5    12    13   ar
     6    13    14   ar
     7    14    15   ar
     8    15     1    1
     9     1     2   ar
    10     2     3   ar
    11     3     4   ar
    12     4    18    1
    13    18    19    2
    14    18    20   am
    15    22    20    1
    16    22    23    1
    17    24    23    1
    18    24    25    1
    19    25    26    1
    20    26    27    1
    21    28    27    1
    22    28    29    1
    23    28    30    1
    24    30    31    1
    25     4     5   ar
    26     5     6   ar
    27     6     7   ar
    28     7     8   ar
    29     8     9   ar
    30    15    10   ar
    31     9     1   ar
    32     8     3   ar
    33    29    22    1
    34    30    24    1
    35    20    21    1
@<TRIPOS>MOLECULE
*****
 31 35 0 0 0
SMALL
GASTEIGER

@<TRIPOS>ATOM
      1 C         143.4760  137.3728  155.3931 C.ar    1  UNL1        0.2326
      2 N         143.1177  137.9187  156.7435 N.ar    1  UNL1       -0.2080
      3 C         143.8367  139.2231  156.9219 C.ar    1  UNL1        0.1232
      4 C         143.8641  140.2074  158.0534 C.ar    1  UNL1        0.0741
      5 C         144.6943  141.4520  157.9448 C.ar    1  UNL1        0.0062
      6 C         145.4969  141.7122  156.7046 C.ar    1  UNL1        0.0034
      7 C         145.4695  140.7279  155.5731 C.ar    1  UNL1        0.0391
      8 C         144.6393  139.4833  155.6818 C.ar    1  UNL1        0.1649
      9 O         144.4164  138.3398  154.7369 O.2     1  UNL1       -0.4345
     10 C         143.2547  134.7864  155.4998 C.ar    1  UNL1        0.1432
     11 C         142.7596  133.4995  154.9092 C.ar    1  UNL1        0.0371
     12 C         141.9906  133.5122  153.6214 C.ar    1  UNL1        0.0031
     13 C         141.7168  134.8117  152.9242 C.ar    1  UNL1        0.0004
     14 C         142.2119  136.0986  153.5147 C.ar    1  UNL1        0.0077
     15 C         142.9809  136.0859  154.8025 C.ar    1  UNL1        0.0874
     16 C         144.0997  133.5173  157.6035 C.3     1  UNL1        0.2525
     17 O         144.0237  134.7738  156.7876 O.3     1  UNL1       -0.4713
     18 C         143.0614  139.9471  159.2936 C.2     1  UNL1        0.2474
     19 O         142.5654  141.0959  160.1208 O.2     1  UNL1       -0.2701
     20 N         142.7547  138.5381  159.7064 N.am    1  UNL1       -0.3024
     21 H         143.0802  137.7841  159.1634 H       1  UNL1        0.1497
     22 C         141.9520  138.2777  160.9465 C.3     1  UNL1        0.0745
     23 C         140.4532  138.2876  160.8857 C.3     1  UNL1        0.0356
     24 C         139.6505  138.0273  162.1258 C.3     1  UNL1        0.0591
     25 C         138.8479  137.7669  163.3659 C.3     1  UNL1        0.0161
     26 C         139.5439  137.4967  164.6668 C.3     1  UNL1        0.0028
     27 C         141.0426  137.4869  164.7277 C.3     1  UNL1        0.0161
     28 C         141.8452  137.7472  163.4876 C.3     1  UNL1        0.0591
     29 C         142.6480  138.0075  162.2475 C.3     1  UNL1        0.0356
     30 N         141.1492  138.0174  162.1867 N.3     1  UNL1       -0.2740
     31 C         141.7261  138.1308  161.6483 C.3     1  UNL1        0.0896
@<TRIPOS>BOND
     1    16    17    1
     2    17    10    1
     3    10    11   ar
     4    11    12   ar
     5    12    13   ar
     6    13    14   ar
     7    14    15   ar
     8    15     1    1
     9     1     2   ar
    10     2     3   ar
    11     3     4   ar
    12     4    18    1
    13    18    19    2
    14    18    20   am
    15    22    20    1
    16    22    23    1
    17    24    23    1
    18    24    25    1
    19    25    26    1
    20    26    27    1
    21    28    27    1
    22    28    29    1
    23    28    30    1
    24    30    31    1
    25     4     5   ar
    26     5     6   ar
    27     6     7   ar
    28     7     8   ar
    29     8     9   ar
    30    15    10   ar
    31     9     1   ar
    32     8     3   ar
    33    29    22    1
    34    30    24    1
    35    20    21    1
@<TRIPOS>MOLECULE
*****
 31 35 0 0 0
SMALL
GASTEIGER

@<TRIPOS>ATOM
      1 C         143.0989  139.6313  160.8512 C.ar    1  UNL1        0.2326
      2 N         143.2088  138.6989  159.6813 N.ar    1  UNL1       -0.2080
      3 C         143.1931  139.5235  158.4284 C.ar    1  UNL1        0.1232
      4 C         143.2723  139.1476  156.9784 C.ar    1  UNL1        0.0741
      5 C         143.2319  140.2137  155.9239 C.ar    1  UNL1        0.0062
      6 C         143.1123  141.6556  156.3194 C.ar    1  UNL1        0.0034
      7 C         143.0331  142.0315  157.7694 C.ar    1  UNL1        0.0391
      8 C         143.0735  140.9655  158.8239 C.ar    1  UNL1        0.1649
      9 O         143.0153  141.0321  160.3212 O.2     1  UNL1       -0.4345
     10 C         144.1570  139.7080  163.2228 C.ar    1  UNL1        0.1432
     11 C         144.1347  139.3096  164.6687 C.ar    1  UNL1        0.0371
     12 C         143.0319  138.4361  165.1890 C.ar    1  UNL1        0.0031
     13 C         141.9514  137.9609  164.2634 C.ar    1  UNL1        0.0004
     14 C         141.9738  138.3593  162.8175 C.ar    1  UNL1        0.0077
     15 C         143.0765  139.2328  162.2972 C.ar    1  UNL1        0.0874
     16 C         145.2663  142.0483  163.0165 C.3     1  UNL1        0.2525
     17 O         145.2599  140.5816  162.7025 O.3     1  UNL1       -0.4713
     18 C         143.3919  137.7056  156.5829 C.2     1  UNL1        0.2474
     19 O         144.4776  137.2734  155.6426 O.2     1  UNL1       -0.2701
     20 N         142.4256  136.6959  157.1277 N.am    1  UNL1       -0.3024
     21 H         141.7130  136.9796  157.7449 H       1  UNL1        0.1497
     22 C         142.5452  135.2539  156.7323 C.3     1  UNL1        0.0745
     23 C         143.4630  134.3417  157.4910 C.3     1  UNL1        0.0356
     24 C         143.5826  132.8998  157.0956 C.3     1  UNL1        0.0591
     25 C         143.7021  131.4578  156.7001 C.3     1  UNL1        0.0161
     26 C         142.9039  130.9280  155.5460 C.3     1  UNL1        0.0028
     27 C         141.9861  131.8401  154.7873 C.3     1  UNL1        0.0161
     28 C         141.8665  133.2820  155.1827 C.3     1  UNL1        0.0591
     29 C         141.7470  134.7241  155.5781 C.3     1  UNL1        0.0356
     30 N         142.6648  133.8119  156.3369 N.3     1  UNL1       -0.2740
     31 C         142.4757  134.5838  156.3988 C.3     1  UNL1        0.0896
@<TRIPOS>BOND
     1    16    17    1
     2    17    10    1
     3    10    11   ar
     4    11    12   ar
     5    12    13   ar
     6    13    14   ar
     7    14    15   ar
     8    15     1    1
     9     1     2   ar
    10     2     3   ar
    11     3     4   ar
    12     4    18    1
    13    18    19    2
    14    18    20   am
    15    22    20    1
    16    22    23    1
    17    24    23    1
    18    24    25    1
    19    25    26    1
    20    26    27    1
    21    28    27    1
    22    28    29    1
    23    28    30    1
    24    30    31    1
    25     4     5   ar
    26     5     6   ar
    27     6     7   ar
    28     7     8   ar
    29     8     9   ar
    30    15    10   ar
    31     9     1   ar
    32     8     3   ar
    33    29    22    1
    34    30    24    1
    35    20    21    1
