@<TRIPOS>MOLECULE
*****
 23 25 0 0 0
SMALL
GASTEIGER

@<TRIPOS>ATOM
      1 C         140.6820  140.8830  166.5509 C.ar    1  UNL1        0.0267
      2 C         140.9361  139.4200  166.3388 C.ar    1  UNL1        0.1011
      3 N         140.2972  138.7076  165.1837 N.ar    1  UNL1       -0.2251
      4 C         139.4043  139.4582  164.2407 C.ar    1  UNL1        0.1633
      5 C         139.1502  140.9212  164.4528 C.ar    1  UNL1        0.0986
      6 C         139.7891  141.6336  165.6079 C.ar    1  UNL1        0.0224
      7 N         138.2307  141.3943  163.3663 N.ar    1  UNL1       -0.2694
      8 C         137.9163  140.2236  162.4826 C.ar    1  UNL1        0.3331
      9 O         137.0319  140.2457  161.2712 O.2     1  UNL1       -0.2462
     10 N         138.6416  139.0270  163.0230 N.ar    1  UNL1       -0.2630
     11 C         138.6100  137.6424  162.4470 C.3     1  UNL1        0.1366
     12 C         144.2744  142.6658  169.9857 C.3     1  UNL1        0.0316
     13 C         142.9721  142.4149  169.2848 C.ar    1  UNL1       -0.0149
     14 C         141.6359  142.9687  169.6823 C.ar    1  UNL1        0.0312
     15 S         140.6154  142.4622  168.7065 S.2     1  UNL1       -0.0867
     16 C         141.3209  141.5955  167.7060 C.ar    1  UNL1        0.0307
     17 C         142.7774  141.5662  168.0634 C.ar    1  UNL1        0.0028
     18 C         137.7158  142.7925  163.1937 C.3     1  UNL1        0.1956
     19 C         138.4794  143.7749  162.3558 C.2     1  UNL1        0.2490
     20 O         138.4744  143.6492  160.8611 O.2     1  UNL1       -0.2728
     21 N         139.2480  144.8829  163.0127 N.am    1  UNL1       -0.2744
     22 C         140.0116  145.8653  162.1749 C.3     1  UNL1        0.1150
     23 C         139.2530  145.0087  164.5074 C.3     1  UNL1        0.1150
@<TRIPOS>BOND
     1    12    13    1
     2    13    14   ar
     3    14    15   ar
     4    15    16   ar
     5    16     1    1
     6     1     2   ar
     7     2     3   ar
     8     3     4   ar
     9     4     5   ar
    10     5     6   ar
    11     5     7   ar
    12     7    18    1
    13    18    19    1
    14    19    20    2
    15    19    21   am
    16    21    22    1
    17    21    23    1
    18     7     8   ar
    19     8     9    2
    20     8    10   ar
    21    10    11    1
    22    16    17   ar
    23    17    13   ar
    24     6     1   ar
    25    10     4   ar
@<TRIPOS>MOLECULE
*****
 23 25 0 0 0
SMALL
GASTEIGER

@<TRIPOS>ATOM
      1 C         141.7562  141.0962  166.9645 C.ar    1  UNL1        0.0267
      2 C         142.8062  142.1585  166.8273 C.ar    1  UNL1        0.1011
      3 N         143.7295  142.1522  165.6452 N.ar    1  UNL1       -0.2251
      4 C         143.6029  141.0834  164.6004 C.ar    1  UNL1        0.1633
      5 C         142.5529  140.0211  164.7376 C.ar    1  UNL1        0.0986
      6 C         141.6296  140.0275  165.9196 C.ar    1  UNL1        0.0224
      7 N         142.6659  139.1025  163.5571 N.ar    1  UNL1       -0.2694
      8 C         143.7858  139.5972  162.6904 C.ar    1  UNL1        0.3331
      9 O         144.2458  138.9764  161.4046 O.2     1  UNL1       -0.2462
     10 N         144.3649  140.8215  163.3351 N.ar    1  UNL1       -0.2630
     11 C         145.5057  141.6400  162.8073 C.3     1  UNL1        0.1366
     12 C         137.9392  139.7674  170.3624 C.3     1  UNL1        0.0316
     13 C         139.0783  140.4917  169.7085 C.ar    1  UNL1       -0.0149
     14 C         139.7455  141.7329  170.2229 C.ar    1  UNL1        0.0312
     15 S         140.8298  142.1103  169.2577 S.2     1  UNL1       -0.0867
     16 C         140.8328  141.1025  168.1466 C.ar    1  UNL1        0.0307
     17 C         139.7504  140.1022  168.4253 C.ar    1  UNL1        0.0028
     18 C         141.8095  137.9003  163.2903 C.3     1  UNL1        0.1956
     19 C         140.6527  137.9994  162.3405 C.2     1  UNL1        0.2490
     20 O         140.9013  138.1401  160.8680 O.2     1  UNL1       -0.2728
     21 N         139.2474  137.9579  162.8632 N.am    1  UNL1       -0.2744
     22 C         138.0906  138.0570  161.9134 C.3     1  UNL1        0.1150
     23 C         138.9987  137.8173  164.3358 C.3     1  UNL1        0.1150
@<TRIPOS>BOND
     1    12    13    1
     2    13    14   ar
     3    14    15   ar
     4    15    16   ar
     5    16     1    1
     6     1     2   ar
     7     2     3   ar
     8     3     4   ar
     9     4     5   ar
    10     5     6   ar
    11     5     7   ar
    12     7    18    1
    13    18    19    1
    14    19    20    2
    15    19    21   am
    16    21    22    1
    17    21    23    1
    18     7     8   ar
    19     8     9    2
    20     8    10   ar
    21    10    11    1
    22    16    17   ar
    23    17    13   ar
    24     6     1   ar
    25    10     4   ar
@<TRIPOS>MOLECULE
*****
 23 25 0 0 0
SMALL
GASTEIGER

@<TRIPOS>ATOM
      1 C         142.0703  139.7954  165.9075 C.ar    1  UNL1        0.0267
      2 C         142.3037  138.4516  165.2833 C.ar    1  UNL1        0.1011
      3 N         142.8485  138.3567  163.8890 N.ar    1  UNL1       -0.2251
      4 C         143.1600  139.6057  163.1189 C.ar    1  UNL1        0.1633
      5 C         142.9266  140.9495  163.7430 C.ar    1  UNL1        0.0986
      6 C         142.3818  141.0444  165.1373 C.ar    1  UNL1        0.0224
      7 N         143.3246  141.9985  162.7474 N.ar    1  UNL1       -0.2694
      8 C         143.8040  141.3029  161.5079 C.ar    1  UNL1        0.3331
      9 O         144.2984  141.9693  160.2582 O.2     1  UNL1       -0.2462
     10 N         143.7023  139.8241  161.7374 N.ar    1  UNL1       -0.2630
     11 C         144.0770  138.7519  160.7576 C.3     1  UNL1        0.1366
     12 C         138.7503  140.3625  169.9740 C.3     1  UNL1        0.0316
     13 C         139.9995  140.1510  169.1710 C.ar    1  UNL1       -0.0149
     14 C         141.3749  139.9217  169.7241 C.ar    1  UNL1        0.0312
     15 S         142.3180  139.7606  168.5688 S.2     1  UNL1       -0.0867
     16 C         141.5255  139.8903  167.3019 C.ar    1  UNL1        0.0307
     17 C         140.0926  140.1316  167.6741 C.ar    1  UNL1        0.0028
     18 C         143.2554  143.4824  162.9549 C.3     1  UNL1        0.1956
     19 C         142.2441  144.2982  162.2053 C.2     1  UNL1        0.2490
     20 O         142.4701  144.6291  160.7599 O.2     1  UNL1       -0.2728
     21 N         141.0069  144.7830  162.9012 N.am    1  UNL1       -0.2744
     22 C         139.9957  145.5988  162.1516 C.3     1  UNL1        0.1150
     23 C         140.7809  144.4521  164.3466 C.3     1  UNL1        0.1150
@<TRIPOS>BOND
     1    12    13    1
     2    13    14   ar
     3    14    15   ar
     4    15    16   ar
     5    16     1    1
     6     1     2   ar
     7     2     3   ar
     8     3     4   ar
     9     4     5   ar
    10     5     6   ar
    11     5     7   ar
    12     7    18    1
    13    18    19    1
    14    19    20    2
    15    19    21   am
    16    21    22    1
    17    21    23    1
    18     7     8   ar
    19     8     9    2
    20     8    10   ar
    21    10    11    1
    22    16    17   ar
    23    17    13   ar
    24     6     1   ar
    25    10     4   ar
@<TRIPOS>MOLECULE
*****
 23 25 0 0 0
SMALL
GASTEIGER

@<TRIPOS>ATOM
      1 C         140.3333  140.8168  166.3094 C.ar    1  UNL1        0.0267
      2 C         141.1209  139.5558  166.1102 C.ar    1  UNL1        0.1011
      3 N         141.2028  138.9298  164.7496 N.ar    1  UNL1       -0.2251
      4 C         140.4971  139.5647  163.5882 C.ar    1  UNL1        0.1633
      5 C         139.7096  140.8256  163.7873 C.ar    1  UNL1        0.0986
      6 C         139.6277  141.4517  165.1479 C.ar    1  UNL1        0.0224
      7 N         139.1237  141.2201  162.4640 N.ar    1  UNL1       -0.2694
      8 C         139.5492  140.2029  161.4470 C.ar    1  UNL1        0.3331
      9 O         139.1890  140.2080  159.9908 O.2     1  UNL1       -0.2462
     10 N         140.3980  139.1798  162.1417 N.ar    1  UNL1       -0.2630
     11 C         141.0357  137.9821  161.5024 C.3     1  UNL1        0.1366
     12 C         140.4545  144.3599  170.2226 C.3     1  UNL1        0.0316
     13 C         140.3071  143.0715  169.4687 C.ar    1  UNL1       -0.0149
     14 C         139.9436  141.7412  170.0590 C.ar    1  UNL1        0.0312
     15 S         139.9092  140.7347  168.9473 S.2     1  UNL1       -0.0867
     16 C         140.2514  141.4429  167.6700 C.ar    1  UNL1        0.0307
     17 C         140.4974  142.8871  167.9923 C.ar    1  UNL1        0.0028
     18 C         138.2634  142.4209  162.2035 C.3     1  UNL1        0.1956
     19 C         138.8603  143.6519  161.5884 C.2     1  UNL1        0.2490
     20 O         139.1262  143.6996  160.1129 O.2     1  UNL1       -0.2728
     21 N         139.1912  144.8352  162.4488 N.am    1  UNL1       -0.2744
     22 C         139.7881  146.0663  161.8336 C.3     1  UNL1        0.1150
     23 C         138.9254  144.7876  163.9242 C.3     1  UNL1        0.1150
@<TRIPOS>BOND
     1    12    13    1
     2    13    14   ar
     3    14    15   ar
     4    15    16   ar
     5    16     1    1
     6     1     2   ar
     7     2     3   ar
     8     3     4   ar
     9     4     5   ar
    10     5     6   ar
    11     5     7   ar
    12     7    18    1
    13    18    19    1
    14    19    20    2
    15    19    21   am
    16    21    22    1
    17    21    23    1
    18     7     8   ar
    19     8     9    2
    20     8    10   ar
    21    10    11    1
    22    16    17   ar
    23    17    13   ar
    24     6     1   ar
    25    10     4   ar
@<TRIPOS>MOLECULE
*****
 23 25 0 0 0
SMALL
GASTEIGER

@<TRIPOS>ATOM
      1 C         141.7304  141.8510  166.8963 C.ar    1  UNL1        0.0267
      2 C         140.5766  142.7984  166.7512 C.ar    1  UNL1        0.1011
      3 N         140.4173  143.5992  165.4930 N.ar    1  UNL1       -0.2251
      4 C         141.4119  143.4526  164.3797 C.ar    1  UNL1        0.1633
      5 C         142.5657  142.5052  164.5247 C.ar    1  UNL1        0.0986
      6 C         142.7249  141.7044  165.7830 C.ar    1  UNL1        0.0224
      7 N         143.3809  142.5717  163.2673 N.ar    1  UNL1       -0.2694
      8 C         142.7309  143.5602  162.3452 C.ar    1  UNL1        0.3331
      9 O         143.2132  143.9379  160.9759 O.2     1  UNL1       -0.2462
     10 N         141.5140  144.1047  163.0326 N.ar    1  UNL1       -0.2630
     11 C         140.5656  145.1225  162.4716 C.3     1  UNL1        0.1366
     12 C         143.0190  137.9950  170.2655 C.3     1  UNL1        0.0316
     13 C         142.4820  139.2777  169.7032 C.ar    1  UNL1       -0.0149
     14 C         141.7875  140.3579  170.4786 C.ar    1  UNL1        0.0312
     15 S         141.4215  141.4532  169.5215 S.2     1  UNL1       -0.0867
     16 C         141.8897  141.0501  168.1546 C.ar    1  UNL1        0.0307
     17 C         142.5451  139.7056  168.2669 C.ar    1  UNL1        0.0028
     18 C         144.6272  141.7873  162.9822 C.3     1  UNL1        0.1956
     19 C         144.5697  140.2905  162.9024 C.2     1  UNL1        0.2490
     20 O         144.9662  139.4605  164.0872 O.2     1  UNL1       -0.2728
     21 N         144.1156  139.6238  161.6377 N.am    1  UNL1       -0.2744
     22 C         144.0580  138.1270  161.5579 C.3     1  UNL1        0.1150
     23 C         143.7191  140.4538  160.4529 C.3     1  UNL1        0.1150
@<TRIPOS>BOND
     1    12    13    1
     2    13    14   ar
     3    14    15   ar
     4    15    16   ar
     5    16     1    1
     6     1     2   ar
     7     2     3   ar
     8     3     4   ar
     9     4     5   ar
    10     5     6   ar
    11     5     7   ar
    12     7    18    1
    13    18    19    1
    14    19    20    2
    15    19    21   am
    16    21    22    1
    17    21    23    1
    18     7     8   ar
    19     8     9    2
    20     8    10   ar
    21    10    11    1
    22    16    17   ar
    23    17    13   ar
    24     6     1   ar
    25    10     4   ar
@<TRIPOS>MOLECULE
*****
 23 25 0 0 0
SMALL
GASTEIGER

@<TRIPOS>ATOM
      1 C         139.6050  140.2529  166.5472 C.ar    1  UNL1        0.0267
      2 C         138.9769  139.0584  165.8924 C.ar    1  UNL1        0.1011
      3 N         138.4359  139.1657  164.4975 N.ar    1  UNL1       -0.2251
      4 C         138.5231  140.4674  163.7573 C.ar    1  UNL1        0.1633
      5 C         139.1512  141.6619  164.4120 C.ar    1  UNL1        0.0986
      6 C         139.6921  141.5546  165.8070 C.ar    1  UNL1        0.0224
      7 N         139.0961  142.8046  163.4420 N.ar    1  UNL1       -0.2694
      8 C         138.4339  142.3164  162.1877 C.ar    1  UNL1        0.3331
      9 O         138.1719  143.1299  160.9549 O.2     1  UNL1       -0.2462
     10 N         138.0798  140.8719  162.3825 N.ar    1  UNL1       -0.2630
     11 C         137.4015  139.9872  161.3789 C.3     1  UNL1        0.1366
     12 C         142.9146  139.6549  170.6178 C.3     1  UNL1        0.0316
     13 C         141.6672  139.8708  169.8132 C.ar    1  UNL1       -0.0149
     14 C         140.2895  140.0905  170.3643 C.ar    1  UNL1        0.0312
     15 S         139.3493  140.2604  169.2080 S.2     1  UNL1       -0.0867
     16 C         140.1459  140.1456  167.9421 C.ar    1  UNL1        0.0307
     17 C         141.5784  139.9049  168.3162 C.ar    1  UNL1        0.0028
     18 C         139.6125  144.1920  163.6837 C.3     1  UNL1        0.1956
     19 C         140.8501  144.6648  162.9803 C.2     1  UNL1        0.2490
     20 O         140.7350  145.4815  161.7274 O.2     1  UNL1       -0.2728
     21 N         142.2028  144.3210  163.5298 N.am    1  UNL1       -0.2744
     22 C         143.4404  144.7938  162.8263 C.3     1  UNL1        0.1150
     23 C         142.3180  143.5043  164.7826 C.3     1  UNL1        0.1150
@<TRIPOS>BOND
     1    12    13    1
     2    13    14   ar
     3    14    15   ar
     4    15    16   ar
     5    16     1    1
     6     1     2   ar
     7     2     3   ar
     8     3     4   ar
     9     4     5   ar
    10     5     6   ar
    11     5     7   ar
    12     7    18    1
    13    18    19    1
    14    19    20    2
    15    19    21   am
    16    21    22    1
    17    21    23    1
    18     7     8   ar
    19     8     9    2
    20     8    10   ar
    21    10    11    1
    22    16    17   ar
    23    17    13   ar
    24     6     1   ar
    25    10     4   ar
@<TRIPOS>MOLECULE
*****
 23 25 0 0 0
SMALL
GASTEIGER

@<TRIPOS>ATOM
      1 C         141.2102  141.9136  166.6719 C.ar    1  UNL1        0.0267
      2 C         140.1282  142.9456  166.5531 C.ar    1  UNL1        0.1011
      3 N         140.0625  143.8272  165.3413 N.ar    1  UNL1       -0.2251
      4 C         141.0788  143.6766  164.2483 C.ar    1  UNL1        0.1633
      5 C         142.1608  142.6446  164.3672 C.ar    1  UNL1        0.0986
      6 C         142.2265  141.7631  165.5790 C.ar    1  UNL1        0.0224
      7 N         143.0170  142.7271  163.1384 N.ar    1  UNL1       -0.2694
      8 C         142.4643  143.8102  162.2601 C.ar    1  UNL1        0.3331
      9 O         143.0131  144.2323  160.9293 O.2     1  UNL1       -0.2462
     10 N         141.2663  144.3971  162.9460 N.ar    1  UNL1       -0.2630
     11 C         140.4069  145.5090  162.4218 C.3     1  UNL1        0.1366
     12 C         142.8713  138.3826  170.2292 C.3     1  UNL1        0.0316
     13 C         142.0395  139.4090  169.5189 C.ar    1  UNL1       -0.0149
     14 C         140.7146  139.9418  169.9783 C.ar    1  UNL1        0.0312
     15 S         140.2428  140.9448  168.9678 S.2     1  UNL1       -0.0867
     16 C         141.2759  141.0320  167.8838 C.ar    1  UNL1        0.0307
     17 C         142.3863  140.0828  168.2244 C.ar    1  UNL1        0.0028
     18 C         144.2156  141.8760  162.8403 C.3     1  UNL1        0.1956
     19 C         144.1025  140.7328  161.8758 C.2     1  UNL1        0.2490
     20 O         144.0419  140.9990  160.4008 O.2     1  UNL1       -0.2728
     21 N         144.0501  139.3233  162.3862 N.am    1  UNL1       -0.2744
     22 C         143.9370  138.1800  161.4217 C.3     1  UNL1        0.1150
     23 C         144.1107  139.0569  163.8611 C.3     1  UNL1        0.1150
@<TRIPOS>BOND
     1    12    13    1
     2    13    14   ar
     3    14    15   ar
     4    15    16   ar
     5    16     1    1
     6     1     2   ar
     7     2     3   ar
     8     3     4   ar
     9     4     5   ar
    10     5     6   ar
    11     5     7   ar
    12     7    18    1
    13    18    19    1
    14    19    20    2
    15    19    21   am
    16    21    22    1
    17    21    23    1
    18     7     8   ar
    19     8     9    2
    20     8    10   ar
    21    10    11    1
    22    16    17   ar
    23    17    13   ar
    24     6     1   ar
    25    10     4   ar
@<TRIPOS>MOLECULE
*****
 23 25 0 0 0
SMALL
GASTEIGER

@<TRIPOS>ATOM
      1 C         142.6622  141.4553  166.5177 C.ar    1  UNL1        0.0267
      2 C         142.7162  139.9633  166.3736 C.ar    1  UNL1        0.1011
      3 N         143.0635  139.3497  165.0497 N.ar    1  UNL1       -0.2251
      4 C         143.3569  140.2282  163.8698 C.ar    1  UNL1        0.1633
      5 C         143.3030  141.7203  164.0138 C.ar    1  UNL1        0.0986
      6 C         142.9557  142.3338  165.3378 C.ar    1  UNL1        0.0224
      7 N         143.6381  142.3268  162.6835 N.ar    1  UNL1       -0.2694
      8 C         143.8992  141.2095  161.7172 C.ar    1  UNL1        0.3331
      9 O         144.2692  141.3625  160.2716 O.2     1  UNL1       -0.2462
     10 N         143.7254  139.9125  162.4504 N.ar    1  UNL1       -0.2630
     11 C         143.8910  138.5407  161.8667 C.3     1  UNL1        0.1366
     12 C         139.9633  143.7289  170.4455 C.3     1  UNL1        0.0316
     13 C         141.0744  143.1140  169.6471 C.ar    1  UNL1       -0.0149
     14 C         142.4866  142.9125  170.1109 C.ar    1  UNL1        0.0312
     15 S         143.2532  142.2666  168.9951 S.2     1  UNL1       -0.0867
     16 C         142.3149  142.0690  167.8416 C.ar    1  UNL1        0.0307
     17 C         140.9683  142.5927  168.2446 C.ar    1  UNL1        0.0028
     18 C         143.7012  143.7931  162.3738 C.3     1  UNL1        0.1956
     19 C         142.4594  144.6307  162.4541 C.2     1  UNL1        0.2490
     20 O         142.1287  145.3620  163.7213 O.2     1  UNL1       -0.2728
     21 N         141.5483  144.7369  161.2672 N.am    1  UNL1       -0.2744
     22 C         140.3066  145.5745  161.3476 C.3     1  UNL1        0.1150
     23 C         141.8790  144.0056  160.0000 C.3     1  UNL1        0.1150
@<TRIPOS>BOND
     1    12    13    1
     2    13    14   ar
     3    14    15   ar
     4    15    16   ar
     5    16     1    1
     6     1     2   ar
     7     2     3   ar
     8     3     4   ar
     9     4     5   ar
    10     5     6   ar
    11     5     7   ar
    12     7    18    1
    13    18    19    1
    14    19    20    2
    15    19    21   am
    16    21    22    1
    17    21    23    1
    18     7     8   ar
    19     8     9    2
    20     8    10   ar
    21    10    11    1
    22    16    17   ar
    23    17    13   ar
    24     6     1   ar
    25    10     4   ar
@<TRIPOS>MOLECULE
*****
 23 25 0 0 0
SMALL
GASTEIGER

@<TRIPOS>ATOM
      1 C         140.9192  139.8989  166.5203 C.ar    1  UNL1        0.0267
      2 C         139.4323  139.7273  166.4223 C.ar    1  UNL1        0.1011
      3 N         138.8167  139.2345  165.1463 N.ar    1  UNL1       -0.2251
      4 C         139.6880  138.9134  163.9683 C.ar    1  UNL1        0.1633
      5 C         141.1749  139.0850  164.0663 C.ar    1  UNL1        0.0986
      6 C         141.7905  139.5777  165.3423 C.ar    1  UNL1        0.0224
      7 N         141.7748  138.6911  162.7491 N.ar    1  UNL1       -0.2694
      8 C         140.6586  138.2760  161.8370 C.ar    1  UNL1        0.3331
      9 O         140.8062  137.8061  160.4201 O.2     1  UNL1       -0.2462
     10 N         139.3689  138.4134  162.5905 N.ar    1  UNL1       -0.2630
     11 C         138.0003  138.1049  162.0595 C.3     1  UNL1        0.1366
     12 C         144.0395  142.4459  169.9347 C.3     1  UNL1        0.0316
     13 C         142.9691  141.5624  169.3657 C.ar    1  UNL1       -0.0149
     14 C         141.9954  140.7375  170.1541 C.ar    1  UNL1        0.0312
     15 S         141.1090  140.0140  169.1841 S.2     1  UNL1       -0.0867
     16 C         141.5349  140.3917  167.7963 C.ar    1  UNL1        0.0307
     17 C         142.6845  141.3486  167.9086 C.ar    1  UNL1        0.0028
     18 C         143.2345  138.7091  162.4045 C.3     1  UNL1        0.1956
     19 C         143.9627  140.0158  162.2927 C.2     1  UNL1        0.2490
     20 O         143.6959  140.9260  161.1307 O.2     1  UNL1       -0.2728
     21 N         144.9576  140.4122  163.3429 N.am    1  UNL1       -0.2744
     22 C         145.6858  141.7188  163.2311 C.3     1  UNL1        0.1150
     23 C         145.2245  139.5020  164.5049 C.3     1  UNL1        0.1150
@<TRIPOS>BOND
     1    12    13    1
     2    13    14   ar
     3    14    15   ar
     4    15    16   ar
     5    16     1    1
     6     1     2   ar
     7     2     3   ar
     8     3     4   ar
     9     4     5   ar
    10     5     6   ar
    11     5     7   ar
    12     7    18    1
    13    18    19    1
    14    19    20    2
    15    19    21   am
    16    21    22    1
    17    21    23    1
    18     7     8   ar
    19     8     9    2
    20     8    10   ar
    21    10    11    1
    22    16    17   ar
    23    17    13   ar
    24     6     1   ar
    25    10     4   ar
