@<TRIPOS>MOLECULE
*****
 29 32 0 0 0
SMALL
GASTEIGER

@<TRIPOS>ATOM
      1 C         138.8517  139.3628  167.0550 C.3     1  UNL1        0.0040
      2 C         140.0100  140.2146  167.4824 C.3     1  UNL1        0.0424
      3 C         139.0279  139.9255  168.5787 C.3     1  UNL1        0.0109
      4 C         139.2563  140.4770  169.9548 C.3     1  UNL1        0.0563
      5 C         140.4667  141.3176  170.2346 C.2     1  UNL1        0.1134
      6 F         140.6950  141.8691  171.6108 F       1  UNL1       -0.2092
      7 C         141.4488  141.6067  169.1383 C.2     1  UNL1       -0.0012
      8 C         141.2204  141.0552  167.7622 C.3     1  UNL1        0.0288
      9 C         142.0083  141.1708  166.4910 C.3     1  UNL1        0.0242
     10 C         141.2848  140.4018  165.4256 C.3     1  UNL1        0.0981
     11 C         140.0498  139.8108  166.0384 C.3     1  UNL1        0.1804
     12 N         141.7200  140.2503  163.9982 N.3     1  UNL1       -0.2697
     13 C         141.4643  141.3538  163.0150 C.3     1  UNL1        0.0722
     14 C         141.8995  141.2023  161.5875 C.3     1  UNL1        0.0187
     15 C         142.5903  139.9473  161.1432 C.3     1  UNL1        0.0183
     16 C         142.8460  138.8437  162.1264 C.3     1  UNL1        0.0670
     17 N         143.5368  137.5885  161.6821 N.3     1  UNL1       -0.3211
     18 C         142.4108  138.9952  163.5539 C.3     1  UNL1        0.0878
     19 H         143.6270  136.9516  162.4737 H       1  UNL1        0.1189
     20 H         144.4636  137.8190  161.3240 H       1  UNL1        0.1189
     21 O         139.0331  138.9645  165.3312 O.3     1  UNL1       -0.4778
     22 C         138.6989  139.2371  163.8946 C.ar    1  UNL1        0.1385
     23 C         138.0315  140.5245  163.5110 C.ar    1  UNL1        0.0376
     24 C         137.6973  140.7971  162.0743 C.ar    1  UNL1        0.0134
     25 C         138.0304  139.7822  161.0212 C.ar    1  UNL1        0.0686
     26 C         138.6977  138.4947  161.4048 C.ar    1  UNL1        0.0134
     27 C         139.0319  138.2221  162.8414 C.ar    1  UNL1        0.0376
     28 C         137.6962  140.0547  159.5846 C.1     1  UNL1        0.1004
     29 N         137.3620  140.3272  158.1479 N.1     1  UNL1       -0.1908
@<TRIPOS>BOND
     1     2     1    1
     2     2     3    1
     3     3     4    1
     4     4     5    1
     5     5     6    1
     6     5     7    2
     7     7     8    1
     8     8     9    1
     9     9    10    1
    10    10    12    1
    11    12    13    1
    12    13    14    1
    13    14    15    1
    14    15    16    1
    15    16    17    1
    16    16    18    1
    17    10    11    1
    18    11    21    1
    19    21    22    1
    20    22    23   ar
    21    23    24   ar
    22    24    25   ar
    23    25    28    1
    24    28    29    3
    25    25    26   ar
    26    26    27   ar
    27     8     2    1
    28    18    12    1
    29    27    22   ar
    30    11     2    1
    31    17    19    1
    32    17    20    1
@<TRIPOS>MOLECULE
*****
 29 32 0 0 0
SMALL
GASTEIGER

@<TRIPOS>ATOM
      1 C         142.8059  142.0119  166.3395 C.3     1  UNL1        0.0040
      2 C         141.8822  141.3741  167.3345 C.3     1  UNL1        0.0424
      3 C         142.9576  142.2168  167.9534 C.3     1  UNL1        0.0109
      4 C         143.0343  142.3585  169.4447 C.3     1  UNL1        0.0563
      5 C         142.0355  141.6574  170.3171 C.2     1  UNL1        0.1134
      6 F         142.1123  141.7992  171.8084 F       1  UNL1       -0.2092
      7 C         140.9601  140.8146  169.6981 C.2     1  UNL1       -0.0012
      8 C         140.8834  140.6730  168.2068 C.3     1  UNL1        0.0288
      9 C         139.9422  139.9157  167.3176 C.3     1  UNL1        0.0242
     10 C         140.3592  140.1488  165.8957 C.3     1  UNL1        0.0981
     11 C         141.5581  141.0501  165.9062 C.3     1  UNL1        0.1804
     12 N         139.6940  139.5804  164.6774 N.3     1  UNL1       -0.2697
     13 C         140.0085  138.1822  164.2346 C.3     1  UNL1        0.0722
     14 C         139.3433  137.6138  163.0162 C.3     1  UNL1        0.0187
     15 C         138.3636  138.4436  162.2406 C.3     1  UNL1        0.0183
     16 C         138.0491  139.8418  162.6834 C.3     1  UNL1        0.0670
     17 N         137.0693  140.6716  161.9078 N.3     1  UNL1       -0.3211
     18 C         138.7142  140.4102  163.9018 C.3     1  UNL1        0.0878
     19 H         136.9770  141.5876  162.3469 H       1  UNL1        0.1189
     20 H         136.1618  140.2060  161.8985 H       1  UNL1        0.1189
     21 O         142.3024  141.5412  164.7000 O.3     1  UNL1       -0.4778
     22 C         142.4422  140.6598  163.4945 C.ar    1  UNL1        0.1385
     23 C         141.7630  141.0324  162.2100 C.ar    1  UNL1        0.0376
     24 C         141.9028  140.1509  161.0045 C.ar    1  UNL1        0.0134
     25 C         142.7217  138.8966  161.0834 C.ar    1  UNL1        0.0686
     26 C         143.4009  138.5239  162.3679 C.ar    1  UNL1        0.0134
     27 C         143.2611  139.4055  163.5734 C.ar    1  UNL1        0.0376
     28 C         142.8614  138.0151  159.8779 C.1     1  UNL1        0.1004
     29 N         143.0012  137.1335  158.6724 N.1     1  UNL1       -0.1908
@<TRIPOS>BOND
     1     2     1    1
     2     2     3    1
     3     3     4    1
     4     4     5    1
     5     5     6    1
     6     5     7    2
     7     7     8    1
     8     8     9    1
     9     9    10    1
    10    10    12    1
    11    12    13    1
    12    13    14    1
    13    14    15    1
    14    15    16    1
    15    16    17    1
    16    16    18    1
    17    10    11    1
    18    11    21    1
    19    21    22    1
    20    22    23   ar
    21    23    24   ar
    22    24    25   ar
    23    25    28    1
    24    28    29    3
    25    25    26   ar
    26    26    27   ar
    27     8     2    1
    28    18    12    1
    29    27    22   ar
    30    11     2    1
    31    17    19    1
    32    17    20    1
@<TRIPOS>MOLECULE
*****
 29 32 0 0 0
SMALL
GASTEIGER

@<TRIPOS>ATOM
      1 C         143.2010  139.4348  167.1128 C.3     1  UNL1        0.0040
      2 C         142.0252  140.2538  167.5564 C.3     1  UNL1        0.0424
      3 C         142.5080  139.2731  168.5836 C.3     1  UNL1        0.0109
      4 C         141.8210  139.1811  169.9137 C.3     1  UNL1        0.0563
      5 C         140.6511  140.0696  170.2168 C.2     1  UNL1        0.1134
      6 F         139.9640  139.9775  171.5470 F       1  UNL1       -0.2092
      7 C         140.1683  141.0503  169.1896 C.2     1  UNL1       -0.0012
      8 C         140.8553  141.1424  167.8594 C.3     1  UNL1        0.0288
      9 C         140.6060  142.0061  166.6586 C.3     1  UNL1        0.0242
     10 C         141.6217  141.6513  165.6134 C.3     1  UNL1        0.0981
     11 C         142.4988  140.5683  166.1683 C.3     1  UNL1        0.1804
     12 N         141.7397  142.2707  164.2524 N.3     1  UNL1       -0.2697
     13 C         140.9220  141.7387  163.1129 C.3     1  UNL1        0.0722
     14 C         141.0399  142.3581  161.7519 C.3     1  UNL1        0.0187
     15 C         141.9755  143.5094  161.5303 C.3     1  UNL1        0.0183
     16 C         142.7931  144.0414  162.6698 C.3     1  UNL1        0.0670
     17 N         143.7288  145.1928  162.4482 N.3     1  UNL1       -0.3211
     18 C         142.6752  143.4220  164.0308 C.3     1  UNL1        0.0878
     19 H         144.1998  145.4214  163.3236 H       1  UNL1        0.1189
     20 H         143.2002  146.0030  162.1249 H       1  UNL1        0.1189
     21 O         143.6479  139.9146  165.4596 O.3     1  UNL1       -0.4778
     22 C         143.5135  139.5192  164.0190 C.ar    1  UNL1        0.1385
     23 C         144.3396  140.2063  162.9723 C.ar    1  UNL1        0.0376
     24 C         144.2051  139.8108  161.5317 C.ar    1  UNL1        0.0134
     25 C         143.2445  138.7283  161.1376 C.ar    1  UNL1        0.0686
     26 C         142.4183  138.0411  162.1842 C.ar    1  UNL1        0.0134
     27 C         142.5528  138.4366  163.6248 C.ar    1  UNL1        0.0376
     28 C         143.1100  138.3328  159.6969 C.1     1  UNL1        0.1004
     29 N         142.9756  137.9373  158.2563 N.1     1  UNL1       -0.1908
@<TRIPOS>BOND
     1     2     1    1
     2     2     3    1
     3     3     4    1
     4     4     5    1
     5     5     6    1
     6     5     7    2
     7     7     8    1
     8     8     9    1
     9     9    10    1
    10    10    12    1
    11    12    13    1
    12    13    14    1
    13    14    15    1
    14    15    16    1
    15    16    17    1
    16    16    18    1
    17    10    11    1
    18    11    21    1
    19    21    22    1
    20    22    23   ar
    21    23    24   ar
    22    24    25   ar
    23    25    28    1
    24    28    29    3
    25    25    26   ar
    26    26    27   ar
    27     8     2    1
    28    18    12    1
    29    27    22   ar
    30    11     2    1
    31    17    19    1
    32    17    20    1
@<TRIPOS>MOLECULE
*****
 29 32 0 0 0
SMALL
GASTEIGER

@<TRIPOS>ATOM
      1 C         140.4046  138.6934  163.7406 C.3     1  UNL1        0.0040
      2 C         139.7631  139.2875  164.9594 C.3     1  UNL1        0.0424
      3 C         139.3434  137.8757  164.6758 C.3     1  UNL1        0.0109
      4 C         138.3635  137.1886  165.5801 C.3     1  UNL1        0.0563
      5 C         137.8034  137.9134  166.7680 C.2     1  UNL1        0.1134
      6 F         136.8236  137.2262  167.6723 F       1  UNL1       -0.2092
      7 C         138.2232  139.3252  167.0515 C.2     1  UNL1       -0.0012
      8 C         139.2030  140.0123  166.1472 C.3     1  UNL1        0.0288
      9 C         139.7985  141.3888  166.1734 C.3     1  UNL1        0.0242
     10 C         140.7265  141.5148  165.0018 C.3     1  UNL1        0.0981
     11 C         140.7047  140.2161  164.2515 C.3     1  UNL1        0.1804
     12 N         141.5346  142.7266  164.6434 N.3     1  UNL1       -0.2697
     13 C         142.9947  142.7817  164.9826 C.3     1  UNL1        0.0722
     14 C         143.8027  143.9936  164.6242 C.3     1  UNL1        0.0187
     15 C         143.1507  145.1503  163.9266 C.3     1  UNL1        0.0183
     16 C         141.6907  145.0953  163.5874 C.3     1  UNL1        0.0670
     17 N         141.0386  146.2521  162.8898 N.3     1  UNL1       -0.3211
     18 C         140.8826  143.8834  163.9458 C.3     1  UNL1        0.0878
     19 H         140.0512  146.0453  162.7387 H       1  UNL1        0.1189
     20 H         141.4947  146.4080  161.9908 H       1  UNL1        0.1189
     21 O         141.4871  139.9013  163.0110 O.3     1  UNL1       -0.4778
     22 C         141.6881  140.9556  161.9632 C.ar    1  UNL1        0.1385
     23 C         140.5093  141.5036  161.2148 C.ar    1  UNL1        0.0376
     24 C         140.7104  142.5579  160.1670 C.ar    1  UNL1        0.0134
     25 C         142.0902  143.0643  159.8675 C.ar    1  UNL1        0.0686
     26 C         143.2690  142.5163  160.6160 C.ar    1  UNL1        0.0134
     27 C         143.0680  141.4620  161.6638 C.ar    1  UNL1        0.0376
     28 C         142.2913  144.1186  158.8197 C.1     1  UNL1        0.1004
     29 N         142.4923  145.1730  157.7719 N.1     1  UNL1       -0.1908
@<TRIPOS>BOND
     1     2     1    1
     2     2     3    1
     3     3     4    1
     4     4     5    1
     5     5     6    1
     6     5     7    2
     7     7     8    1
     8     8     9    1
     9     9    10    1
    10    10    12    1
    11    12    13    1
    12    13    14    1
    13    14    15    1
    14    15    16    1
    15    16    17    1
    16    16    18    1
    17    10    11    1
    18    11    21    1
    19    21    22    1
    20    22    23   ar
    21    23    24   ar
    22    24    25   ar
    23    25    28    1
    24    28    29    3
    25    25    26   ar
    26    26    27   ar
    27     8     2    1
    28    18    12    1
    29    27    22   ar
    30    11     2    1
    31    17    19    1
    32    17    20    1
@<TRIPOS>MOLECULE
*****
 29 32 0 0 0
SMALL
GASTEIGER

@<TRIPOS>ATOM
      1 C         139.5217  139.5533  167.1701 C.3     1  UNL1        0.0040
      2 C         139.9223  140.9398  167.5790 C.3     1  UNL1        0.0424
      3 C         139.6834  140.0092  168.7308 C.3     1  UNL1        0.0109
      4 C         139.8515  140.4993  170.1384 C.3     1  UNL1        0.0563
      5 C         140.2587  141.9202  170.3942 C.2     1  UNL1        0.1134
      6 F         140.4268  142.4103  171.8019 F       1  UNL1       -0.2092
      7 C         140.4976  142.8508  169.2424 C.2     1  UNL1       -0.0012
      8 C         140.3295  142.3607  167.8348 C.3     1  UNL1        0.0288
      9 C         140.4941  143.0416  166.5084 C.3     1  UNL1        0.0242
     10 C         140.1888  142.0417  165.4329 C.3     1  UNL1        0.0981
     11 C         139.8354  140.7427  166.0945 C.3     1  UNL1        0.1804
     12 N         140.2297  142.2960  163.9552 N.3     1  UNL1       -0.2697
     13 C         141.5401  142.2703  163.2257 C.3     1  UNL1        0.0722
     14 C         141.5809  142.5246  161.7480 C.3     1  UNL1        0.0187
     15 C         140.3115  142.8047  160.9997 C.3     1  UNL1        0.0183
     16 C         139.0011  142.8304  161.7292 C.3     1  UNL1        0.0670
     17 N         137.7315  143.1105  160.9810 N.3     1  UNL1       -0.3211
     18 C         138.9602  142.5761  163.2069 C.3     1  UNL1        0.0878
     19 H         136.9436  143.0894  161.6284 H       1  UNL1        0.1189
     20 H         137.5982  142.4014  160.2600 H       1  UNL1        0.1189
     21 O         139.4609  139.4700  165.3946 O.3     1  UNL1       -0.4778
     22 C         140.1847  139.0592  164.1468 C.ar    1  UNL1        0.1385
     23 C         139.4423  138.9605  162.8470 C.ar    1  UNL1        0.0376
     24 C         140.1663  138.5498  161.5992 C.ar    1  UNL1        0.0134
     25 C         141.6325  138.2376  161.6509 C.ar    1  UNL1        0.0686
     26 C         142.3749  138.3362  162.9506 C.ar    1  UNL1        0.0134
     27 C         141.6510  138.7470  164.1985 C.ar    1  UNL1        0.0376
     28 C         142.3564  137.8268  160.4030 C.1     1  UNL1        0.1004
     29 N         143.0803  137.4160  159.1552 N.1     1  UNL1       -0.1908
@<TRIPOS>BOND
     1     2     1    1
     2     2     3    1
     3     3     4    1
     4     4     5    1
     5     5     6    1
     6     5     7    2
     7     7     8    1
     8     8     9    1
     9     9    10    1
    10    10    12    1
    11    12    13    1
    12    13    14    1
    13    14    15    1
    14    15    16    1
    15    16    17    1
    16    16    18    1
    17    10    11    1
    18    11    21    1
    19    21    22    1
    20    22    23   ar
    21    23    24   ar
    22    24    25   ar
    23    25    28    1
    24    28    29    3
    25    25    26   ar
    26    26    27   ar
    27     8     2    1
    28    18    12    1
    29    27    22   ar
    30    11     2    1
    31    17    19    1
    32    17    20    1
@<TRIPOS>MOLECULE
*****
 29 32 0 0 0
SMALL
GASTEIGER

@<TRIPOS>ATOM
      1 C         142.7592  141.9529  166.6542 C.3     1  UNL1        0.0040
      2 C         141.8283  141.3030  167.6346 C.3     1  UNL1        0.0424
      3 C         142.9382  142.0843  168.2730 C.3     1  UNL1        0.0109
      4 C         143.0387  142.1601  169.7676 C.3     1  UNL1        0.0563
      5 C         142.0292  141.4546  170.6239 C.2     1  UNL1        0.1134
      6 F         142.1297  141.5304  172.1187 F       1  UNL1       -0.2092
      7 C         140.9193  140.6733  169.9855 C.2     1  UNL1       -0.0012
      8 C         140.8188  140.5975  168.4908 C.3     1  UNL1        0.0288
      9 C         139.8423  139.9088  167.5841 C.3     1  UNL1        0.0242
     10 C         140.2482  140.1887  166.1675 C.3     1  UNL1        0.0981
     11 C         141.4756  141.0503  166.1987 C.3     1  UNL1        0.1804
     12 N         139.5493  139.6938  164.9359 N.3     1  UNL1       -0.2697
     13 C         139.7876  138.2951  164.4493 C.3     1  UNL1        0.0722
     14 C         139.0887  137.8003  163.2177 C.3     1  UNL1        0.0187
     15 C         138.1517  138.7041  162.4728 C.3     1  UNL1        0.0183
     16 C         137.9135  140.1028  162.9594 C.3     1  UNL1        0.0670
     17 N         136.9764  141.0068  162.2144 N.3     1  UNL1       -0.3211
     18 C         138.6123  140.5977  164.1910 C.3     1  UNL1        0.0878
     19 H         136.9345  141.9125  162.6816 H       1  UNL1        0.1189
     20 H         136.0454  140.5904  162.1958 H       1  UNL1        0.1189
     21 O         142.2198  141.5684  165.0037 O.3     1  UNL1       -0.4778
     22 C         141.6212  142.6548  164.1604 C.ar    1  UNL1        0.1385
     23 C         140.6497  143.6245  164.7652 C.ar    1  UNL1        0.0376
     24 C         140.0511  144.7110  163.9218 C.ar    1  UNL1        0.0134
     25 C         140.4240  144.8278  162.4737 C.ar    1  UNL1        0.0686
     26 C         141.3955  143.8581  161.8688 C.ar    1  UNL1        0.0134
     27 C         141.9941  142.7716  162.7122 C.ar    1  UNL1        0.0376
     28 C         139.8254  145.9142  161.6303 C.1     1  UNL1        0.1004
     29 N         139.2268  147.0007  160.7869 N.1     1  UNL1       -0.1908
@<TRIPOS>BOND
     1     2     1    1
     2     2     3    1
     3     3     4    1
     4     4     5    1
     5     5     6    1
     6     5     7    2
     7     7     8    1
     8     8     9    1
     9     9    10    1
    10    10    12    1
    11    12    13    1
    12    13    14    1
    13    14    15    1
    14    15    16    1
    15    16    17    1
    16    16    18    1
    17    10    11    1
    18    11    21    1
    19    21    22    1
    20    22    23   ar
    21    23    24   ar
    22    24    25   ar
    23    25    28    1
    24    28    29    3
    25    25    26   ar
    26    26    27   ar
    27     8     2    1
    28    18    12    1
    29    27    22   ar
    30    11     2    1
    31    17    19    1
    32    17    20    1
@<TRIPOS>MOLECULE
*****
 29 32 0 0 0
SMALL
GASTEIGER

@<TRIPOS>ATOM
      1 C         139.8258  140.5671  166.5975 C.3     1  UNL1        0.0040
      2 C         140.8054  141.1169  167.5916 C.3     1  UNL1        0.0424
      3 C         139.7045  140.3039  168.2055 C.3     1  UNL1        0.0109
      4 C         139.6581  140.1051  169.6915 C.3     1  UNL1        0.0563
      5 C         140.7127  140.7193  170.5636 C.2     1  UNL1        0.1134
      6 F         140.6663  140.5205  172.0497 F       1  UNL1       -0.2092
      7 C         141.8136  141.5324  169.9497 C.2     1  UNL1       -0.0012
      8 C         141.8600  141.7311  168.4637 C.3     1  UNL1        0.0288
      9 C         142.8158  142.4765  167.5801 C.3     1  UNL1        0.0242
     10 C         142.3520  142.3230  166.1619 C.3     1  UNL1        0.0981
     11 C         141.1095  141.4827  166.1690 C.3     1  UNL1        0.1804
     12 N         143.0144  142.9072  164.9495 N.3     1  UNL1       -0.2697
     13 C         142.6650  144.2947  164.4993 C.3     1  UNL1        0.0722
     14 C         143.3274  144.8789  163.2869 C.3     1  UNL1        0.0187
     15 C         144.3392  144.0756  162.5246 C.3     1  UNL1        0.0183
     16 C         144.6885  142.6881  162.9748 C.3     1  UNL1        0.0670
     17 N         145.7003  141.8847  162.2126 N.3     1  UNL1       -0.3211
     18 C         144.0261  142.1039  164.1873 C.3     1  UNL1        0.0878
     19 H         145.8138  140.9728  162.6553 H       1  UNL1        0.1189
     20 H         146.5942  142.3760  162.2122 H       1  UNL1        0.1189
     21 O         140.3112  141.0791  164.9650 O.3     1  UNL1       -0.4778
     22 C         140.2551  141.9787  163.7661 C.ar    1  UNL1        0.1385
     23 C         140.9727  141.5949  162.5060 C.ar    1  UNL1        0.0376
     24 C         140.9166  142.4947  161.3072 C.ar    1  UNL1        0.0134
     25 C         140.1430  143.7783  161.3684 C.ar    1  UNL1        0.0686
     26 C         139.4254  144.1622  162.6284 C.ar    1  UNL1        0.0134
     27 C         139.4815  143.2624  163.8273 C.ar    1  UNL1        0.0376
     28 C         140.0868  144.6781  160.1695 C.1     1  UNL1        0.1004
     29 N         140.0307  145.5778  158.9707 N.1     1  UNL1       -0.1908
@<TRIPOS>BOND
     1     2     1    1
     2     2     3    1
     3     3     4    1
     4     4     5    1
     5     5     6    1
     6     5     7    2
     7     7     8    1
     8     8     9    1
     9     9    10    1
    10    10    12    1
    11    12    13    1
    12    13    14    1
    13    14    15    1
    14    15    16    1
    15    16    17    1
    16    16    18    1
    17    10    11    1
    18    11    21    1
    19    21    22    1
    20    22    23   ar
    21    23    24   ar
    22    24    25   ar
    23    25    28    1
    24    28    29    3
    25    25    26   ar
    26    26    27   ar
    27     8     2    1
    28    18    12    1
    29    27    22   ar
    30    11     2    1
    31    17    19    1
    32    17    20    1
@<TRIPOS>MOLECULE
*****
 29 32 0 0 0
SMALL
GASTEIGER

@<TRIPOS>ATOM
      1 C         139.6740  140.3376  166.5271 C.3     1  UNL1        0.0040
      2 C         140.7765  140.8231  167.4208 C.3     1  UNL1        0.0424
      3 C         139.5954  140.2643  168.1575 C.3     1  UNL1        0.0109
      4 C         139.5946  140.2297  169.6570 C.3     1  UNL1        0.0563
      5 C         140.7749  140.7539  170.4200 C.2     1  UNL1        0.1134
      6 F         140.7741  140.7192  171.9196 F       1  UNL1       -0.2092
      7 C         141.9561  141.3127  169.6833 C.2     1  UNL1       -0.0012
      8 C         141.9568  141.3473  168.1838 C.3     1  UNL1        0.0288
      9 C         142.9706  141.8351  167.1916 C.3     1  UNL1        0.0242
     10 C         142.4168  141.6124  165.8155 C.3     1  UNL1        0.0981
     11 C         141.0608  140.9870  165.9572 C.3     1  UNL1        0.1804
     12 N         143.0992  141.9550  164.5244 N.3     1  UNL1       -0.2697
     13 C         144.1850  141.0679  163.9915 C.3     1  UNL1        0.0722
     14 C         144.8673  141.4105  162.7004 C.3     1  UNL1        0.0187
     15 C         144.4640  142.6403  161.9421 C.3     1  UNL1        0.0183
     16 C         143.3782  143.5274  162.4750 C.3     1  UNL1        0.0670
     17 N         142.9747  144.7573  161.7168 N.3     1  UNL1       -0.3211
     18 C         142.6958  143.1848  163.7662 C.3     1  UNL1        0.0878
     19 H         142.2288  145.2376  162.2201 H       1  UNL1        0.1189
     20 H         142.6429  144.4915  160.7896 H       1  UNL1        0.1189
     21 O         140.1491  140.5943  164.8326 O.3     1  UNL1       -0.4778
     22 C         140.7143  139.9665  163.5932 C.ar    1  UNL1        0.1385
     23 C         141.4008  138.6352  163.6728 C.ar    1  UNL1        0.0376
     24 C         141.9660  138.0074  162.4333 C.ar    1  UNL1        0.0134
     25 C         141.8447  138.7108  161.1141 C.ar    1  UNL1        0.0686
     26 C         141.1582  140.0422  161.0343 C.ar    1  UNL1        0.0134
     27 C         140.5930  140.6699  162.2739 C.ar    1  UNL1        0.0376
     28 C         142.4099  138.0831  159.8746 C.1     1  UNL1        0.1004
     29 N         142.9751  137.4553  158.6350 N.1     1  UNL1       -0.1908
@<TRIPOS>BOND
     1     2     1    1
     2     2     3    1
     3     3     4    1
     4     4     5    1
     5     5     6    1
     6     5     7    2
     7     7     8    1
     8     8     9    1
     9     9    10    1
    10    10    12    1
    11    12    13    1
    12    13    14    1
    13    14    15    1
    14    15    16    1
    15    16    17    1
    16    16    18    1
    17    10    11    1
    18    11    21    1
    19    21    22    1
    20    22    23   ar
    21    23    24   ar
    22    24    25   ar
    23    25    28    1
    24    28    29    3
    25    25    26   ar
    26    26    27   ar
    27     8     2    1
    28    18    12    1
    29    27    22   ar
    30    11     2    1
    31    17    19    1
    32    17    20    1
@<TRIPOS>MOLECULE
*****
 29 32 0 0 0
SMALL
GASTEIGER

@<TRIPOS>ATOM
      1 C         139.2923  140.2471  166.8298 C.3     1  UNL1        0.0040
      2 C         140.5003  140.1051  167.7077 C.3     1  UNL1        0.0424
      3 C         139.2116  140.2482  168.4617 C.3     1  UNL1        0.0109
      4 C         139.2154  140.2402  169.9616 C.3     1  UNL1        0.0563
      5 C         140.5080  140.0892  170.7076 C.2     1  UNL1        0.1134
      6 F         140.5117  140.0813  172.2076 F       1  UNL1       -0.2092
      7 C         141.7967  139.9462  169.9536 C.2     1  UNL1       -0.0012
      8 C         141.7929  139.9541  168.4536 C.3     1  UNL1        0.0288
      9 C         142.8979  139.8333  167.4464 C.3     1  UNL1        0.0242
     10 C         142.2883  139.9096  166.0780 C.3     1  UNL1        0.0981
     11 C         140.8065  140.0776  166.2395 C.3     1  UNL1        0.1804
     12 N         143.0302  139.8316  164.7767 N.3     1  UNL1       -0.2697
     13 C         142.7185  138.7365  163.8002 C.3     1  UNL1        0.0722
     14 C         143.4604  138.6585  162.4988 C.3     1  UNL1        0.0187
     15 C         144.5139  139.6756  162.1740 C.3     1  UNL1        0.0183
     16 C         144.8255  140.7707  163.1505 C.3     1  UNL1        0.0670
     17 N         145.8791  141.7879  162.8256 N.3     1  UNL1       -0.3211
     18 C         144.0837  140.8487  164.4518 C.3     1  UNL1        0.0878
     19 H         145.9586  142.4526  163.5951 H       1  UNL1        0.1189
     20 H         145.6210  142.2843  161.9728 H       1  UNL1        0.1189
     21 O         139.8064  140.1971  165.1280 O.3     1  UNL1       -0.4778
     22 C         139.6977  141.4755  164.3510 C.ar    1  UNL1        0.1385
     23 C         138.4401  141.7900  163.5964 C.ar    1  UNL1        0.0376
     24 C         138.3315  143.0685  162.8195 C.ar    1  UNL1        0.0134
     25 C         139.4804  144.0326  162.7971 C.ar    1  UNL1        0.0686
     26 C         140.7381  143.7181  163.5518 C.ar    1  UNL1        0.0134
     27 C         140.8467  142.4396  164.3287 C.ar    1  UNL1        0.0376
     28 C         139.3718  145.3111  162.0202 C.1     1  UNL1        0.1004
     29 N         139.2631  146.5896  161.2433 N.1     1  UNL1       -0.1908
@<TRIPOS>BOND
     1     2     1    1
     2     2     3    1
     3     3     4    1
     4     4     5    1
     5     5     6    1
     6     5     7    2
     7     7     8    1
     8     8     9    1
     9     9    10    1
    10    10    12    1
    11    12    13    1
    12    13    14    1
    13    14    15    1
    14    15    16    1
    15    16    17    1
    16    16    18    1
    17    10    11    1
    18    11    21    1
    19    21    22    1
    20    22    23   ar
    21    23    24   ar
    22    24    25   ar
    23    25    28    1
    24    28    29    3
    25    25    26   ar
    26    26    27   ar
    27     8     2    1
    28    18    12    1
    29    27    22   ar
    30    11     2    1
    31    17    19    1
    32    17    20    1
