@<TRIPOS>MOLECULE
*****
 30 32 0 0 0
SMALL
GASTEIGER

@<TRIPOS>ATOM
      1 O         143.2625  139.0876  164.3830 O.2     1  UNL1       -0.2522
      2 C         142.7371  140.3252  163.7180 C.2     1  UNL1        0.3079
      3 N         143.0836  140.6125  162.2870 N.am    1  UNL1       -0.2844
      4 N         141.8651  141.2755  164.4838 N.am    1  UNL1       -0.2448
      5 H         142.7387  141.4247  161.8505 H       1  UNL1        0.1513
      6 C         141.3396  142.5131  163.8188 C.ar    1  UNL1        0.0552
      7 C         142.0629  143.8170  163.9821 C.ar    1  UNL1        0.0155
      8 C         141.5374  145.0546  163.3171 C.ar    1  UNL1        0.0080
      9 C         140.2887  144.9883  162.4887 C.ar    1  UNL1        0.0346
     10 BR        139.7633  146.2259  161.8237 Br      1  UNL1       -0.0490
     11 C         139.5655  143.6844  162.3253 C.ar    1  UNL1        0.0080
     12 C         140.0909  142.4468  162.9904 C.ar    1  UNL1        0.0155
     13 C         141.5186  140.9883  165.9146 C.3     1  UNL1        0.0840
     14 C         142.4356  141.4381  167.0133 C.3     1  UNL1        0.0376
     15 C         142.0891  141.1509  168.4441 C.3     1  UNL1        0.0739
     16 N         140.8256  140.4138  168.7764 N.3     1  UNL1       -0.2705
     17 C         139.9087  139.9639  167.6779 C.3     1  UNL1        0.0739
     18 C         140.2552  140.2512  166.2469 C.3     1  UNL1        0.0376
     19 C         140.4791  140.1265  170.2073 C.3     1  UNL1        0.1042
     20 C         141.0156  141.0036  171.2995 C.3     1  UNL1        0.1544
     21 O         142.2909  140.6359  171.9984 O.3     1  UNL1       -0.3805
     22 H         142.1604  139.8152  172.4986 H       1  UNL1        0.2105
     23 C         143.9556  139.6621  161.5212 C.3     1  UNL1        0.1177
     24 C         143.5997  139.2863  160.1133 C.ar    1  UNL1       -0.0024
     25 C         143.8480  140.2529  158.9935 C.ar    1  UNL1       -0.0003
     26 C         143.4921  139.8771  157.5856 C.ar    1  UNL1        0.0294
     27 C         142.8879  138.5347  157.2976 C.ar    1  UNL1        0.1401
     28 F         142.5320  138.1589  155.8897 F       1  UNL1       -0.2042
     29 C         142.6396  137.5681  158.4174 C.ar    1  UNL1        0.0294
     30 C         142.9955  137.9439  159.8253 C.ar    1  UNL1       -0.0003
@<TRIPOS>BOND
     1     1     2    2
     2     2     3   am
     3     3    23    1
     4    23    24    1
     5    24    25   ar
     6    25    26   ar
     7    26    27   ar
     8    27    28    1
     9    27    29   ar
    10    29    30   ar
    11     2     4   am
    12     4     6    1
    13     6     7   ar
    14     7     8   ar
    15     8     9   ar
    16     9    10    1
    17     9    11   ar
    18    11    12   ar
    19     4    13    1
    20    13    14    1
    21    14    15    1
    22    15    16    1
    23    16    19    1
    24    19    20    1
    25    20    21    1
    26    16    17    1
    27    17    18    1
    28    30    24   ar
    29    12     6   ar
    30    18    13    1
    31     3     5    1
    32    21    22    1
@<TRIPOS>MOLECULE
*****
 30 32 0 0 0
SMALL
GASTEIGER

@<TRIPOS>ATOM
      1 O         141.4976  137.4724  161.9856 O.2     1  UNL1       -0.2522
      2 C         141.3303  138.9582  161.8655 C.2     1  UNL1        0.3079
      3 N         141.3118  139.8129  163.0981 N.am    1  UNL1       -0.2844
      4 N         141.1815  139.5893  160.5129 N.am    1  UNL1       -0.2448
      5 H         141.2020  140.7881  163.0193 H       1  UNL1        0.1513
      6 C         141.0142  141.0751  160.3929 C.ar    1  UNL1        0.0552
      7 C         139.6450  141.6837  160.4622 C.ar    1  UNL1        0.0155
      8 C         139.4777  143.1695  160.3422 C.ar    1  UNL1        0.0080
      9 C         140.6796  144.0467  160.1527 C.ar    1  UNL1        0.0346
     10 BR        140.5123  145.5325  160.0327 Br      1  UNL1       -0.0490
     11 C         142.0488  143.4381  160.0834 C.ar    1  UNL1        0.0080
     12 C         142.2161  141.9523  160.2034 C.ar    1  UNL1        0.0155
     13 C         141.2000  138.7346  159.2804 C.3     1  UNL1        0.0840
     14 C         139.9248  138.4571  158.5409 C.3     1  UNL1        0.0376
     15 C         139.9433  137.6024  157.3084 C.3     1  UNL1        0.0739
     16 N         141.2370  137.0252  156.8154 N.3     1  UNL1       -0.2705
     17 C         142.5122  137.3026  157.5548 C.3     1  UNL1        0.0739
     18 C         142.4938  138.1574  158.7874 C.3     1  UNL1        0.0376
     19 C         141.2555  136.1705  155.5828 C.3     1  UNL1        0.1042
     20 C         141.9111  134.8217  155.6152 C.3     1  UNL1        0.1544
     21 O         141.0768  133.5796  155.5098 O.3     1  UNL1       -0.3805
     22 H         140.5100  133.5034  156.2933 H       1  UNL1        0.2105
     23 C         141.4606  139.1818  164.4507 C.3     1  UNL1        0.1177
     24 C         140.2425  138.8301  165.2524 C.ar    1  UNL1       -0.0024
     25 C         139.4449  137.6074  164.9075 C.ar    1  UNL1       -0.0003
     26 C         138.2269  137.2558  165.7092 C.ar    1  UNL1        0.0294
     27 C         137.8064  138.1268  166.8557 C.ar    1  UNL1        0.1401
     28 F         136.5883  137.7752  167.6573 F       1  UNL1       -0.2042
     29 C         138.6039  139.3495  167.2005 C.ar    1  UNL1        0.0294
     30 C         139.8219  139.7011  166.3988 C.ar    1  UNL1       -0.0003
@<TRIPOS>BOND
     1     1     2    2
     2     2     3   am
     3     3    23    1
     4    23    24    1
     5    24    25   ar
     6    25    26   ar
     7    26    27   ar
     8    27    28    1
     9    27    29   ar
    10    29    30   ar
    11     2     4   am
    12     4     6    1
    13     6     7   ar
    14     7     8   ar
    15     8     9   ar
    16     9    10    1
    17     9    11   ar
    18    11    12   ar
    19     4    13    1
    20    13    14    1
    21    14    15    1
    22    15    16    1
    23    16    19    1
    24    19    20    1
    25    20    21    1
    26    16    17    1
    27    17    18    1
    28    30    24   ar
    29    12     6   ar
    30    18    13    1
    31     3     5    1
    32    21    22    1
@<TRIPOS>MOLECULE
*****
 30 32 0 0 0
SMALL
GASTEIGER

@<TRIPOS>ATOM
      1 O         142.0873  144.8898  164.0248 O.2     1  UNL1       -0.2522
      2 C         141.3478  143.7209  163.4443 C.2     1  UNL1        0.3079
      3 N         140.9843  143.7112  161.9890 N.am    1  UNL1       -0.2844
      4 N         140.9720  142.5618  164.3190 N.am    1  UNL1       -0.2448
      5 H         140.4990  142.9440  161.6080 H       1  UNL1        0.1513
      6 C         140.2326  141.3929  163.7386 C.ar    1  UNL1        0.0552
      7 C         138.7327  141.3867  163.7236 C.ar    1  UNL1        0.0155
      8 C         137.9933  140.2178  163.1431 C.ar    1  UNL1        0.0080
      9 C         138.7538  139.0551  162.5776 C.ar    1  UNL1        0.0346
     10 BR        138.0144  137.8862  161.9971 Br      1  UNL1       -0.0490
     11 C         140.2537  139.0614  162.5926 C.ar    1  UNL1        0.0080
     12 C         140.9931  140.2303  163.1731 C.ar    1  UNL1        0.0155
     13 C         141.3356  142.5716  165.7742 C.3     1  UNL1        0.0840
     14 C         142.7375  142.2490  166.1993 C.3     1  UNL1        0.0376
     15 C         143.1011  142.2588  167.6545 C.3     1  UNL1        0.0739
     16 N         142.0628  142.5912  168.6847 N.3     1  UNL1       -0.2705
     17 C         140.6609  142.9139  168.2598 C.3     1  UNL1        0.0739
     18 C         140.2973  142.9041  166.8045 C.3     1  UNL1        0.0376
     19 C         142.4264  142.6011  170.1399 C.3     1  UNL1        0.1042
     20 C         141.6098  141.8148  171.1223 C.3     1  UNL1        0.1544
     21 O         142.2527  140.7284  171.9324 O.3     1  UNL1       -0.3805
     22 H         142.5347  140.0103  171.3443 H       1  UNL1        0.2105
     23 C         141.3601  144.8703  161.1143 C.3     1  UNL1        0.1177
     24 C         141.0061  144.8557  159.6567 C.ar    1  UNL1       -0.0024
     25 C         141.7054  145.7811  158.7057 C.ar    1  UNL1       -0.0003
     26 C         141.3513  145.7665  157.2482 C.ar    1  UNL1        0.0294
     27 C         140.2979  144.8264  156.7417 C.ar    1  UNL1        0.1401
     28 F         139.9439  144.8118  155.2841 F       1  UNL1       -0.2042
     29 C         139.5986  143.9010  157.6926 C.ar    1  UNL1        0.0294
     30 C         139.9527  143.9156  159.1501 C.ar    1  UNL1       -0.0003
@<TRIPOS>BOND
     1     1     2    2
     2     2     3   am
     3     3    23    1
     4    23    24    1
     5    24    25   ar
     6    25    26   ar
     7    26    27   ar
     8    27    28    1
     9    27    29   ar
    10    29    30   ar
    11     2     4   am
    12     4     6    1
    13     6     7   ar
    14     7     8   ar
    15     8     9   ar
    16     9    10    1
    17     9    11   ar
    18    11    12   ar
    19     4    13    1
    20    13    14    1
    21    14    15    1
    22    15    16    1
    23    16    19    1
    24    19    20    1
    25    20    21    1
    26    16    17    1
    27    17    18    1
    28    30    24   ar
    29    12     6   ar
    30    18    13    1
    31     3     5    1
    32    21    22    1
@<TRIPOS>MOLECULE
*****
 30 32 0 0 0
SMALL
GASTEIGER

@<TRIPOS>ATOM
      1 O         142.2180  137.7647  162.8529 O.2     1  UNL1       -0.2522
      2 C         141.8997  139.2268  162.9576 C.2     1  UNL1        0.3079
      3 N         142.0029  139.9239  164.2818 N.am    1  UNL1       -0.2844
      4 N         141.4783  139.9918  161.7381 N.am    1  UNL1       -0.2448
      5 H         141.7940  140.8835  164.3505 H       1  UNL1        0.1513
      6 C         141.1600  141.4539  161.8428 C.ar    1  UNL1        0.0552
      7 C         142.2286  142.4744  161.5848 C.ar    1  UNL1        0.0155
      8 C         141.9103  143.9366  161.6895 C.ar    1  UNL1        0.0080
      9 C         140.5235  144.3781  162.0521 C.ar    1  UNL1        0.0346
     10 BR        140.2052  145.8402  162.1568 Br      1  UNL1       -0.0490
     11 C         139.4549  143.3576  162.3101 C.ar    1  UNL1        0.0080
     12 C         139.7732  141.8955  162.2055 C.ar    1  UNL1        0.0155
     13 C         141.3752  139.2947  160.4140 C.3     1  UNL1        0.0840
     14 C         140.0282  139.0234  159.8121 C.3     1  UNL1        0.0376
     15 C         139.9251  138.3263  158.4880 C.3     1  UNL1        0.0739
     16 N         141.1688  137.9005  157.7657 N.3     1  UNL1       -0.2705
     17 C         142.5157  138.1718  158.3675 C.3     1  UNL1        0.0739
     18 C         142.6189  138.8689  159.6917 C.3     1  UNL1        0.0376
     19 C         141.0657  137.2034  156.4415 C.3     1  UNL1        0.1042
     20 C         139.8466  137.3912  155.5880 C.3     1  UNL1        0.1544
     21 O         138.5896  136.6340  155.8986 O.3     1  UNL1       -0.3805
     22 H         138.7405  135.6860  155.7597 H       1  UNL1        0.2105
     23 C         142.4243  139.1589  165.5013 C.3     1  UNL1        0.1177
     24 C         141.7808  139.4450  166.8257 C.ar    1  UNL1       -0.0024
     25 C         140.3257  139.8036  166.8907 C.ar    1  UNL1       -0.0003
     26 C         139.6822  140.0897  168.2151 C.ar    1  UNL1        0.0294
     27 C         140.4938  140.0172  169.4745 C.ar    1  UNL1        0.1401
     28 F         139.8503  140.3033  170.7989 F       1  UNL1       -0.2042
     29 C         141.9488  139.6586  169.4095 C.ar    1  UNL1        0.0294
     30 C         142.5923  139.3725  168.0851 C.ar    1  UNL1       -0.0003
@<TRIPOS>BOND
     1     1     2    2
     2     2     3   am
     3     3    23    1
     4    23    24    1
     5    24    25   ar
     6    25    26   ar
     7    26    27   ar
     8    27    28    1
     9    27    29   ar
    10    29    30   ar
    11     2     4   am
    12     4     6    1
    13     6     7   ar
    14     7     8   ar
    15     8     9   ar
    16     9    10    1
    17     9    11   ar
    18    11    12   ar
    19     4    13    1
    20    13    14    1
    21    14    15    1
    22    15    16    1
    23    16    19    1
    24    19    20    1
    25    20    21    1
    26    16    17    1
    27    17    18    1
    28    30    24   ar
    29    12     6   ar
    30    18    13    1
    31     3     5    1
    32    21    22    1
@<TRIPOS>MOLECULE
*****
 30 32 0 0 0
SMALL
GASTEIGER

@<TRIPOS>ATOM
      1 O         142.8699  138.0831  162.7110 O.2     1  UNL1       -0.2522
      2 C         142.3633  139.4897  162.8330 C.2     1  UNL1        0.3079
      3 N         142.2451  140.1297  164.1845 N.am    1  UNL1       -0.2844
      4 N         141.9749  140.2562  161.6036 N.am    1  UNL1       -0.2448
      5 H         141.9126  141.0529  164.2646 H       1  UNL1        0.1513
      6 C         141.4683  141.6628  161.7256 C.ar    1  UNL1        0.0552
      7 C         140.0084  141.9166  161.9587 C.ar    1  UNL1        0.0155
      8 C         139.5018  143.3232  162.0807 C.ar    1  UNL1        0.0080
      9 C         140.4551  144.4759  161.9696 C.ar    1  UNL1        0.0346
     10 BR        139.9485  145.8825  162.0916 Br      1  UNL1       -0.0490
     11 C         141.9149  144.2221  161.7366 C.ar    1  UNL1        0.0080
     12 C         142.4215  142.8156  161.6146 C.ar    1  UNL1        0.0155
     13 C         142.0931  139.6162  160.2522 C.3     1  UNL1        0.0840
     14 C         140.9808  138.7558  159.7299 C.3     1  UNL1        0.0376
     15 C         141.0990  138.1158  158.3785 C.3     1  UNL1        0.0739
     16 N         142.3294  138.3361  157.5493 N.3     1  UNL1       -0.2705
     17 C         143.4416  139.1964  158.0715 C.3     1  UNL1        0.0739
     18 C         143.3235  139.8365  159.4230 C.3     1  UNL1        0.0376
     19 C         142.4476  137.6961  156.1979 C.3     1  UNL1        0.1042
     20 C         143.5554  136.7226  155.9233 C.3     1  UNL1        0.1544
     21 O         144.8510  137.2054  155.3418 O.3     1  UNL1       -0.3805
     22 H         144.6986  137.5357  154.4426 H       1  UNL1        0.2105
     23 C         142.6335  139.3631  165.4139 C.3     1  UNL1        0.1177
     24 C         141.8785  139.5660  166.6941 C.ar    1  UNL1       -0.0024
     25 C         142.6002  139.5083  168.0077 C.ar    1  UNL1       -0.0003
     26 C         141.8451  139.7112  169.2878 C.ar    1  UNL1        0.0294
     27 C         140.3683  139.9719  169.2542 C.ar    1  UNL1        0.1401
     28 F         139.6132  140.1748  170.5344 F       1  UNL1       -0.2042
     29 C         139.6466  140.0296  167.9406 C.ar    1  UNL1        0.0294
     30 C         140.4016  139.8266  166.6605 C.ar    1  UNL1       -0.0003
@<TRIPOS>BOND
     1     1     2    2
     2     2     3   am
     3     3    23    1
     4    23    24    1
     5    24    25   ar
     6    25    26   ar
     7    26    27   ar
     8    27    28    1
     9    27    29   ar
    10    29    30   ar
    11     2     4   am
    12     4     6    1
    13     6     7   ar
    14     7     8   ar
    15     8     9   ar
    16     9    10    1
    17     9    11   ar
    18    11    12   ar
    19     4    13    1
    20    13    14    1
    21    14    15    1
    22    15    16    1
    23    16    19    1
    24    19    20    1
    25    20    21    1
    26    16    17    1
    27    17    18    1
    28    30    24   ar
    29    12     6   ar
    30    18    13    1
    31     3     5    1
    32    21    22    1
@<TRIPOS>MOLECULE
*****
 30 32 0 0 0
SMALL
GASTEIGER

@<TRIPOS>ATOM
      1 O         141.8621  141.1932  158.2099 O.2     1  UNL1       -0.2522
      2 C         141.3507  140.6698  159.5193 C.2     1  UNL1        0.3079
      3 N         141.2148  141.5925  160.6942 N.am    1  UNL1       -0.2844
      4 N         140.9752  139.2239  159.6538 N.am    1  UNL1       -0.2448
      5 H         140.8791  141.2490  161.5536 H       1  UNL1        0.1513
      6 C         140.4638  138.7005  160.9632 C.ar    1  UNL1        0.0552
      7 C         138.9992  138.7720  161.2789 C.ar    1  UNL1        0.0155
      8 C         138.4878  138.2486  162.5883 C.ar    1  UNL1        0.0080
      9 C         139.4410  137.6537  163.5820 C.ar    1  UNL1        0.0346
     10 BR        138.9295  137.1303  164.8914 Br      1  UNL1       -0.0490
     11 C         140.9056  137.5822  163.2663 C.ar    1  UNL1        0.0080
     12 C         141.4170  138.1056  161.9569 C.ar    1  UNL1        0.0155
     13 C         141.1111  138.3013  158.4790 C.3     1  UNL1        0.0840
     14 C         142.3961  137.5616  158.2509 C.3     1  UNL1        0.0376
     15 C         142.5320  136.6391  157.0760 C.3     1  UNL1        0.0739
     16 N         141.3830  136.4561  156.1292 N.3     1  UNL1       -0.2705
     17 C         140.0982  137.1957  156.3572 C.3     1  UNL1        0.0739
     18 C         139.9622  138.1184  157.5322 C.3     1  UNL1        0.0376
     19 C         141.5189  135.5336  154.9543 C.3     1  UNL1        0.1042
     20 C         142.1116  134.1678  155.1378 C.3     1  UNL1        0.1544
     21 O         141.3940  133.1440  155.9665 O.3     1  UNL1       -0.3805
     22 H         141.3697  133.4359  156.8912 H       1  UNL1        0.2105
     23 C         141.5903  143.0385  160.5597 C.3     1  UNL1        0.1177
     24 C         142.2605  143.7484  161.6985 C.ar    1  UNL1       -0.0024
     25 C         143.7107  143.4981  161.9890 C.ar    1  UNL1       -0.0003
     26 C         144.3808  144.2081  163.1277 C.ar    1  UNL1        0.0294
     27 C         143.6008  145.1683  163.9760 C.ar    1  UNL1        0.1401
     28 F         144.2711  145.8782  165.1149 F       1  UNL1       -0.2042
     29 C         142.1507  145.4185  163.6856 C.ar    1  UNL1        0.0294
     30 C         141.4806  144.7086  162.5468 C.ar    1  UNL1       -0.0003
@<TRIPOS>BOND
     1     1     2    2
     2     2     3   am
     3     3    23    1
     4    23    24    1
     5    24    25   ar
     6    25    26   ar
     7    26    27   ar
     8    27    28    1
     9    27    29   ar
    10    29    30   ar
    11     2     4   am
    12     4     6    1
    13     6     7   ar
    14     7     8   ar
    15     8     9   ar
    16     9    10    1
    17     9    11   ar
    18    11    12   ar
    19     4    13    1
    20    13    14    1
    21    14    15    1
    22    15    16    1
    23    16    19    1
    24    19    20    1
    25    20    21    1
    26    16    17    1
    27    17    18    1
    28    30    24   ar
    29    12     6   ar
    30    18    13    1
    31     3     5    1
    32    21    22    1
@<TRIPOS>MOLECULE
*****
 30 32 0 0 0
SMALL
GASTEIGER

@<TRIPOS>ATOM
      1 O         141.4773  138.0389  164.2422 O.2     1  UNL1       -0.2522
      2 C         141.2162  139.3729  163.6079 C.2     1  UNL1        0.3079
      3 N         141.2478  139.5124  162.1147 N.am    1  UNL1       -0.2844
      4 N         140.9236  140.5673  164.4667 N.am    1  UNL1       -0.2448
      5 H         141.0765  140.3879  161.6984 H       1  UNL1        0.1513
      6 C         140.6625  141.9013  163.8324 C.ar    1  UNL1        0.0552
      7 C         141.7877  142.8748  163.6432 C.ar    1  UNL1        0.0155
      8 C         141.5267  144.2088  163.0089 C.ar    1  UNL1        0.0080
      9 C         140.1403  144.5692  162.5639 C.ar    1  UNL1        0.0346
     10 BR        139.8792  145.9032  161.9296 Br      1  UNL1       -0.0490
     11 C         139.0150  143.5957  162.7531 C.ar    1  UNL1        0.0080
     12 C         139.2761  142.2617  163.3874 C.ar    1  UNL1        0.0155
     13 C         140.8920  140.4277  165.9599 C.3     1  UNL1        0.0840
     14 C         139.5829  140.2419  166.6683 C.3     1  UNL1        0.0376
     15 C         139.5513  140.1023  168.1614 C.3     1  UNL1        0.0739
     16 N         140.8287  140.1486  168.9462 N.3     1  UNL1       -0.2705
     17 C         142.1378  140.3344  168.2379 C.3     1  UNL1        0.0739
     18 C         142.1694  140.4740  166.7447 C.3     1  UNL1        0.0376
     19 C         140.7971  140.0090  170.4393 C.3     1  UNL1        0.1042
     20 C         141.3838  141.0839  171.3057 C.3     1  UNL1        0.1544
     21 O         140.4873  142.0954  171.9562 O.3     1  UNL1       -0.3805
     22 H         140.0719  142.6456  171.2738 H       1  UNL1        0.2105
     23 C         141.5405  138.3180  161.2558 C.3     1  UNL1        0.1177
     24 C         141.3877  138.4096  159.7664 C.ar    1  UNL1       -0.0024
     25 C         142.5732  138.1841  158.8756 C.ar    1  UNL1       -0.0003
     26 C         142.4204  138.2757  157.3862 C.ar    1  UNL1        0.0294
     27 C         141.0821  138.5928  156.7877 C.ar    1  UNL1        0.1401
     28 F         140.9293  138.6845  155.2983 F       1  UNL1       -0.2042
     29 C         139.8965  138.8184  157.6785 C.ar    1  UNL1        0.0294
     30 C         140.0494  138.7267  159.1679 C.ar    1  UNL1       -0.0003
@<TRIPOS>BOND
     1     1     2    2
     2     2     3   am
     3     3    23    1
     4    23    24    1
     5    24    25   ar
     6    25    26   ar
     7    26    27   ar
     8    27    28    1
     9    27    29   ar
    10    29    30   ar
    11     2     4   am
    12     4     6    1
    13     6     7   ar
    14     7     8   ar
    15     8     9   ar
    16     9    10    1
    17     9    11   ar
    18    11    12   ar
    19     4    13    1
    20    13    14    1
    21    14    15    1
    22    15    16    1
    23    16    19    1
    24    19    20    1
    25    20    21    1
    26    16    17    1
    27    17    18    1
    28    30    24   ar
    29    12     6   ar
    30    18    13    1
    31     3     5    1
    32    21    22    1
@<TRIPOS>MOLECULE
*****
 30 32 0 0 0
SMALL
GASTEIGER

@<TRIPOS>ATOM
      1 O         140.7007  144.8288  164.3150 O.2     1  UNL1       -0.2522
      2 C         141.2388  143.6494  163.5604 C.2     1  UNL1        0.3079
      3 N         141.2260  143.6495  162.0604 N.am    1  UNL1       -0.2844
      4 N         141.7898  142.4700  164.3056 N.am    1  UNL1       -0.2448
      5 H         141.5793  142.8754  161.5651 H       1  UNL1        0.1513
      6 C         142.3279  141.2907  163.5510 C.ar    1  UNL1        0.0552
      7 C         141.4515  140.1006  163.2951 C.ar    1  UNL1        0.0155
      8 C         141.9896  138.9213  162.5404 C.ar    1  UNL1        0.0080
      9 C         143.4042  138.9319  162.0417 C.ar    1  UNL1        0.0346
     10 BR        143.9424  137.7526  161.2871 Br      1  UNL1       -0.0490
     11 C         144.2807  140.1220  162.2977 C.ar    1  UNL1        0.0080
     12 C         143.7425  141.3014  163.0523 C.ar    1  UNL1        0.0155
     13 C         141.8025  142.4700  165.8056 C.3     1  UNL1        0.0840
     14 C         140.5202  142.6337  166.5665 C.3     1  UNL1        0.0376
     15 C         140.5330  142.6336  168.0665 C.3     1  UNL1        0.0739
     16 N         141.8280  142.4700  168.8055 N.3     1  UNL1       -0.2705
     17 C         143.1103  142.3064  168.0446 C.3     1  UNL1        0.0739
     18 C         143.0976  142.3064  166.5446 C.3     1  UNL1        0.0376
     19 C         141.8408  142.4700  170.3054 C.3     1  UNL1        0.1042
     20 C         141.8806  141.1713  171.0551 C.3     1  UNL1        0.1544
     21 O         140.7350  140.7816  171.9414 O.3     1  UNL1       -0.3805
     22 H         140.6795  141.3983  172.6880 H       1  UNL1        0.2105
     23 C         140.6751  144.8289  161.3151 C.3     1  UNL1        0.1177
     24 C         140.3452  144.7072  159.8568 C.ar    1  UNL1       -0.0024
     25 C         139.6218  143.4948  159.3502 C.ar    1  UNL1       -0.0003
     26 C         139.2920  143.3732  157.8920 C.ar    1  UNL1        0.0294
     27 C         139.6855  144.4639  156.9405 C.ar    1  UNL1        0.1401
     28 F         139.3556  144.3422  155.4822 F       1  UNL1       -0.2042
     29 C         140.4089  145.6763  157.4471 C.ar    1  UNL1        0.0294
     30 C         140.7387  145.7980  158.9053 C.ar    1  UNL1       -0.0003
@<TRIPOS>BOND
     1     1     2    2
     2     2     3   am
     3     3    23    1
     4    23    24    1
     5    24    25   ar
     6    25    26   ar
     7    26    27   ar
     8    27    28    1
     9    27    29   ar
    10    29    30   ar
    11     2     4   am
    12     4     6    1
    13     6     7   ar
    14     7     8   ar
    15     8     9   ar
    16     9    10    1
    17     9    11   ar
    18    11    12   ar
    19     4    13    1
    20    13    14    1
    21    14    15    1
    22    15    16    1
    23    16    19    1
    24    19    20    1
    25    20    21    1
    26    16    17    1
    27    17    18    1
    28    30    24   ar
    29    12     6   ar
    30    18    13    1
    31     3     5    1
    32    21    22    1
@<TRIPOS>MOLECULE
*****
 30 32 0 0 0
SMALL
GASTEIGER

@<TRIPOS>ATOM
      1 O         143.4261  139.9189  165.3497 O.2     1  UNL1       -0.2522
      2 C         142.7511  141.1840  164.9095 C.2     1  UNL1        0.3079
      3 N         142.5515  142.3061  165.8849 N.am    1  UNL1       -0.2844
      4 N         142.2758  141.3272  163.4941 N.am    1  UNL1       -0.2448
      5 H         142.1085  143.1365  165.5959 H       1  UNL1        0.1513
      6 C         141.6009  142.5924  163.0539 C.ar    1  UNL1        0.0552
      7 C         140.1900  142.8760  163.4768 C.ar    1  UNL1        0.0155
      8 C         139.5151  144.1412  163.0366 C.ar    1  UNL1        0.0080
      9 C         140.2510  145.1227  162.1735 C.ar    1  UNL1        0.0346
     10 BR        139.5760  146.3879  161.7333 Br      1  UNL1       -0.0490
     11 C         141.6619  144.8390  161.7505 C.ar    1  UNL1        0.0080
     12 C         142.3368  143.5739  162.1907 C.ar    1  UNL1        0.0155
     13 C         142.4755  140.2052  162.5188 C.3     1  UNL1        0.0840
     14 C         143.8028  140.0258  161.8433 C.3     1  UNL1        0.0376
     15 C         144.0024  138.9038  160.8680 C.3     1  UNL1        0.0739
     16 N         142.8748  137.9611  160.5682 N.3     1  UNL1       -0.2705
     17 C         141.5476  138.1404  161.2437 C.3     1  UNL1        0.0739
     18 C         141.3479  139.2624  162.2190 C.3     1  UNL1        0.0376
     19 C         143.0745  136.8391  159.5930 C.3     1  UNL1        0.1042
     20 C         142.7907  137.0526  158.1356 C.3     1  UNL1        0.1544
     21 O         143.2247  138.3223  157.4652 O.3     1  UNL1       -0.3805
     22 H         142.7313  139.0697  157.8379 H       1  UNL1        0.2105
     23 C         143.0268  142.1629  167.3003 C.3     1  UNL1        0.1177
     24 C         142.1655  141.4701  168.3143 C.ar    1  UNL1       -0.0024
     25 C         142.5790  140.1373  168.8644 C.ar    1  UNL1       -0.0003
     26 C         141.7176  139.4445  169.8783 C.ar    1  UNL1        0.0294
     27 C         140.4428  140.0845  170.3421 C.ar    1  UNL1        0.1401
     28 F         139.5814  139.3916  171.3561 F       1  UNL1       -0.2042
     29 C         140.0293  141.4173  169.7921 C.ar    1  UNL1        0.0294
     30 C         140.8906  142.1101  168.7781 C.ar    1  UNL1       -0.0003
@<TRIPOS>BOND
     1     1     2    2
     2     2     3   am
     3     3    23    1
     4    23    24    1
     5    24    25   ar
     6    25    26   ar
     7    26    27   ar
     8    27    28    1
     9    27    29   ar
    10    29    30   ar
    11     2     4   am
    12     4     6    1
    13     6     7   ar
    14     7     8   ar
    15     8     9   ar
    16     9    10    1
    17     9    11   ar
    18    11    12   ar
    19     4    13    1
    20    13    14    1
    21    14    15    1
    22    15    16    1
    23    16    19    1
    24    19    20    1
    25    20    21    1
    26    16    17    1
    27    17    18    1
    28    30    24   ar
    29    12     6   ar
    30    18    13    1
    31     3     5    1
    32    21    22    1
