@<TRIPOS>MOLECULE
*****
 26 29 0 0 0
SMALL
GASTEIGER

@<TRIPOS>ATOM
      1 C         138.7711  143.7068  164.0437 C.ar    1  UNL1        0.1354
      2 C         139.4971  144.0244  165.3172 C.ar    1  UNL1        0.0414
      3 C         139.8290  142.9274  166.2849 C.ar    1  UNL1        0.0177
      4 C         139.4349  141.5128  165.9790 C.ar    1  UNL1        0.0440
      5 C         138.7089  141.1952  164.7054 C.ar    1  UNL1       -0.0038
      6 C         138.3770  142.2922  163.7378 C.ar    1  UNL1        0.0372
      7 C         138.4505  139.7180  164.6753 C.3     1  UNL1        0.0491
      8 C         139.0168  139.1226  165.9302 C.3     1  UNL1        0.0954
      9 N         139.6252  140.2318  166.7360 N.pl3   1  UNL1       -0.3089
     10 C         140.3046  140.0858  168.0653 C.3     1  UNL1        0.0755
     11 C         141.7672  139.7586  168.1281 C.3     1  UNL1        0.0368
     12 C         142.4465  139.6126  169.4575 C.3     1  UNL1        0.0703
     13 N         141.6634  139.7939  170.7239 N.3     1  UNL1       -0.2974
     14 C         140.2009  140.1211  170.6610 C.3     1  UNL1        0.0703
     15 C         139.5215  140.2671  169.3317 C.3     1  UNL1        0.0368
     16 H         142.1121  140.5492  171.2420 H       1  UNL1        0.1232
     17 N         138.4391  144.8038  163.0760 N.pl3   1  UNL1       -0.1990
     18 H         137.5054  145.0952  162.9635 H       1  UNL1        0.2985
     19 N         139.2004  146.5679  161.3272 N.2     1  UNL1       -0.0985
     20 C         139.5296  145.4569  162.2796 C.2     1  UNL1        0.3224
     21 H         138.2685  146.8685  161.2246 H       1  UNL1        0.3633
     22 C         140.9495  144.9990  162.4358 C.ar    1  UNL1        0.1114
     23 C         141.9286  145.4955  163.4581 C.ar    1  UNL1        0.0144
     24 C         143.2238  144.7676  163.2512 C.ar    1  UNL1        0.0077
     25 C         143.0451  143.8213  162.1011 C.ar    1  UNL1        0.0357
     26 S         141.6395  143.9644  161.5972 S.2     1  UNL1       -0.0792
@<TRIPOS>BOND
     1    19    20    2
     2    20    17    1
     3    17     1    1
     4     1     2   ar
     5     2     3   ar
     6     3     4   ar
     7     4     5   ar
     8     5     6   ar
     9     5     7    1
    10     7     8    1
    11     8     9    1
    12     9    10    1
    13    10    11    1
    14    11    12    1
    15    12    13    1
    16    13    14    1
    17    14    15    1
    18    20    22    1
    19    22    23   ar
    20    23    24   ar
    21    24    25   ar
    22    25    26   ar
    23     6     1   ar
    24    15    10    1
    25    26    22   ar
    26     9     4    1
    27    19    21    1
    28    17    18    1
    29    13    16    1
@<TRIPOS>MOLECULE
*****
 26 29 0 0 0
SMALL
GASTEIGER

@<TRIPOS>ATOM
      1 C         139.0294  139.1473  164.3207 C.ar    1  UNL1        0.1354
      2 C         138.5572  139.9876  165.4700 C.ar    1  UNL1        0.0414
      3 C         139.4781  140.2715  166.6195 C.ar    1  UNL1        0.0177
      4 C         140.8711  139.7152  166.6196 C.ar    1  UNL1        0.0440
      5 C         141.3433  138.8749  165.4703 C.ar    1  UNL1       -0.0038
      6 C         140.4224  138.5910  164.3208 C.ar    1  UNL1        0.0372
      7 C         142.7597  138.4657  165.7465 C.3     1  UNL1        0.0491
      8 C         143.1630  139.0531  167.0665 C.3     1  UNL1        0.0954
      9 N         141.9958  139.8254  167.6061 N.pl3   1  UNL1       -0.3089
     10 C         141.9595  140.5759  168.9043 C.3     1  UNL1        0.0755
     11 C         142.8140  141.7947  169.0901 C.3     1  UNL1        0.0368
     12 C         142.7776  142.5452  170.3883 C.3     1  UNL1        0.0703
     13 N         141.8869  142.0770  171.5007 N.3     1  UNL1       -0.2974
     14 C         141.0325  140.8582  171.3149 C.3     1  UNL1        0.0703
     15 C         141.0688  140.1077  170.0167 C.3     1  UNL1        0.0368
     16 H         141.2561  142.8487  171.7174 H       1  UNL1        0.1232
     17 N         138.1085  138.8633  163.1711 N.pl3   1  UNL1       -0.1990
     18 H         137.6906  137.9763  163.0827 H       1  UNL1        0.2985
     19 N         137.0684  139.5941  160.9053 N.2     1  UNL1       -0.0985
     20 C         137.8245  139.9307  162.1563 C.2     1  UNL1        0.3224
     21 H         136.7585  138.6725  160.7503 H       1  UNL1        0.3633
     22 C         138.2965  141.3348  162.3925 C.ar    1  UNL1        0.1114
     23 C         137.5125  142.4288  163.0547 C.ar    1  UNL1        0.0144
     24 C         138.3669  143.6616  163.0794 C.ar    1  UNL1        0.0077
     25 C         139.6788  143.3294  162.4324 C.ar    1  UNL1        0.0357
     26 S         139.6353  141.8913  162.0078 S.2     1  UNL1       -0.0792
@<TRIPOS>BOND
     1    19    20    2
     2    20    17    1
     3    17     1    1
     4     1     2   ar
     5     2     3   ar
     6     3     4   ar
     7     4     5   ar
     8     5     6   ar
     9     5     7    1
    10     7     8    1
    11     8     9    1
    12     9    10    1
    13    10    11    1
    14    11    12    1
    15    12    13    1
    16    13    14    1
    17    14    15    1
    18    20    22    1
    19    22    23   ar
    20    23    24   ar
    21    24    25   ar
    22    25    26   ar
    23     6     1   ar
    24    15    10    1
    25    26    22   ar
    26     9     4    1
    27    19    21    1
    28    17    18    1
    29    13    16    1
@<TRIPOS>MOLECULE
*****
 26 29 0 0 0
SMALL
GASTEIGER

@<TRIPOS>ATOM
      1 C         139.4952  140.3094  166.8286 C.ar    1  UNL1        0.1354
      2 C         140.5199  141.3627  166.5284 C.ar    1  UNL1        0.0414
      3 C         140.4940  142.0806  165.2116 C.ar    1  UNL1        0.0177
      4 C         139.4432  141.7451  164.1951 C.ar    1  UNL1        0.0440
      5 C         138.4184  140.6918  164.4953 C.ar    1  UNL1       -0.0038
      6 C         138.4444  139.9739  165.8121 C.ar    1  UNL1        0.0372
      7 C         137.5105  140.5763  163.3069 C.3     1  UNL1        0.0491
      8 C         137.9742  141.5583  162.2721 C.3     1  UNL1        0.0954
      9 N         139.1686  142.2807  162.8210 N.pl3   1  UNL1       -0.3089
     10 C         139.9512  143.3508  162.1192 C.3     1  UNL1        0.0755
     11 C         139.4382  144.7601  162.0930 C.3     1  UNL1        0.0368
     12 C         140.2208  145.8301  161.3912 C.3     1  UNL1        0.0703
     13 N         141.5163  145.4908  160.7156 N.3     1  UNL1       -0.2974
     14 C         142.0294  144.0815  160.7418 C.3     1  UNL1        0.0703
     15 C         141.2468  143.0115  161.4437 C.3     1  UNL1        0.0368
     16 H         142.2343  146.0736  161.1461 H       1  UNL1        0.1232
     17 N         139.5211  139.5914  168.1454 N.pl3   1  UNL1       -0.1990
     18 H         139.6420  138.6147  168.1713 H       1  UNL1        0.2985
     19 N         138.2117  140.0673  170.3383 N.2     1  UNL1       -0.0985
     20 C         139.3629  140.3616  169.4228 C.2     1  UNL1        0.3224
     21 H         137.5599  139.3687  170.1008 H       1  UNL1        0.3633
     22 C         140.3559  141.4260  169.7848 C.ar    1  UNL1        0.1114
     23 C         140.1323  142.9067  169.6971 C.ar    1  UNL1        0.0144
     24 C         141.3850  143.5926  170.1561 C.ar    1  UNL1        0.0077
     25 C         142.3826  142.5357  170.5273 C.ar    1  UNL1        0.0357
     26 S         141.7466  141.1967  170.2979 S.2     1  UNL1       -0.0792
@<TRIPOS>BOND
     1    19    20    2
     2    20    17    1
     3    17     1    1
     4     1     2   ar
     5     2     3   ar
     6     3     4   ar
     7     4     5   ar
     8     5     6   ar
     9     5     7    1
    10     7     8    1
    11     8     9    1
    12     9    10    1
    13    10    11    1
    14    11    12    1
    15    12    13    1
    16    13    14    1
    17    14    15    1
    18    20    22    1
    19    22    23   ar
    20    23    24   ar
    21    24    25   ar
    22    25    26   ar
    23     6     1   ar
    24    15    10    1
    25    26    22   ar
    26     9     4    1
    27    19    21    1
    28    17    18    1
    29    13    16    1
@<TRIPOS>MOLECULE
*****
 26 29 0 0 0
SMALL
GASTEIGER

@<TRIPOS>ATOM
      1 C         142.9513  138.9064  164.2253 C.ar    1  UNL1        0.1354
      2 C         143.5650  139.6332  165.3850 C.ar    1  UNL1        0.0414
      3 C         142.7116  140.0472  166.5471 C.ar    1  UNL1        0.0177
      4 C         141.2446  139.7343  166.5494 C.ar    1  UNL1        0.0440
      5 C         140.6310  139.0074  165.3897 C.ar    1  UNL1       -0.0038
      6 C         141.4843  138.5935  164.2276 C.ar    1  UNL1        0.0372
      7 C         139.1673  138.8383  165.6707 C.3     1  UNL1        0.0491
      8 C         138.8763  139.4606  167.0042 C.3     1  UNL1        0.0954
      9 N         140.1602  140.0144  167.5473 N.pl3   1  UNL1       -0.3089
     10 C         140.3299  140.7237  168.8580 C.3     1  UNL1        0.0755
     11 C         140.6508  139.9424  170.0976 C.3     1  UNL1        0.0368
     12 C         140.8205  140.6517  171.4083 C.3     1  UNL1        0.0703
     13 N         140.6693  142.1424  171.4794 N.3     1  UNL1       -0.2974
     14 C         140.3484  142.9237  170.2398 C.3     1  UNL1        0.0703
     15 C         140.1787  142.2144  168.9292 C.3     1  UNL1        0.0368
     16 H         141.5495  142.5107  171.8401 H       1  UNL1        0.1232
     17 N         143.8046  138.4924  163.0631 N.pl3   1  UNL1       -0.1990
     18 H         144.2111  137.5959  163.0455 H       1  UNL1        0.2985
     19 N         144.3818  138.9175  160.5659 N.2     1  UNL1       -0.0985
     20 C         144.0386  139.4443  161.9278 C.2     1  UNL1        0.3224
     21 H         144.4534  137.9470  160.4172 H       1  UNL1        0.3633
     22 C         143.9295  140.9232  162.1543 C.ar    1  UNL1        0.1114
     23 C         142.6789  141.7431  162.0367 C.ar    1  UNL1        0.0144
     24 C         143.0282  143.1684  162.3479 C.ar    1  UNL1        0.0077
     25 C         144.4947  143.2291  162.6578 C.ar    1  UNL1        0.0357
     26 S         145.0516  141.8415  162.5382 S.2     1  UNL1       -0.0792
@<TRIPOS>BOND
     1    19    20    2
     2    20    17    1
     3    17     1    1
     4     1     2   ar
     5     2     3   ar
     6     3     4   ar
     7     4     5   ar
     8     5     6   ar
     9     5     7    1
    10     7     8    1
    11     8     9    1
    12     9    10    1
    13    10    11    1
    14    11    12    1
    15    12    13    1
    16    13    14    1
    17    14    15    1
    18    20    22    1
    19    22    23   ar
    20    23    24   ar
    21    24    25   ar
    22    25    26   ar
    23     6     1   ar
    24    15    10    1
    25    26    22   ar
    26     9     4    1
    27    19    21    1
    28    17    18    1
    29    13    16    1
@<TRIPOS>MOLECULE
*****
 26 29 0 0 0
SMALL
GASTEIGER

@<TRIPOS>ATOM
      1 C         140.1114  144.7026  163.0779 C.ar    1  UNL1        0.1354
      2 C         139.0623  144.5919  164.1442 C.ar    1  UNL1        0.0414
      3 C         139.3720  143.8854  165.4306 C.ar    1  UNL1        0.0177
      4 C         140.7310  143.2897  165.6508 C.ar    1  UNL1        0.0440
      5 C         141.7801  143.4005  164.5845 C.ar    1  UNL1       -0.0038
      6 C         141.4704  144.1070  163.2981 C.ar    1  UNL1        0.0372
      7 C         143.0206  142.7198  165.0823 C.3     1  UNL1        0.0491
      8 C         142.7381  142.1883  166.4563 C.3     1  UNL1        0.0954
      9 N         141.3230  142.5405  166.8076 N.pl3   1  UNL1       -0.3089
     10 C         140.6229  142.2028  168.0905 C.3     1  UNL1        0.0755
     11 C         140.5277  143.2247  169.1845 C.3     1  UNL1        0.0368
     12 C         139.8276  142.8869  170.4673 C.3     1  UNL1        0.0703
     13 N         139.2226  141.5274  170.6562 N.3     1  UNL1       -0.2974
     14 C         139.3177  140.5055  169.5622 C.3     1  UNL1        0.0703
     15 C         140.0179  140.8433  168.2794 C.3     1  UNL1        0.0368
     16 H         138.2295  141.6700  170.8403 H       1  UNL1        0.1232
     17 N         139.8017  145.4091  161.7914 N.pl3   1  UNL1       -0.1990
     18 H         139.1908  146.1811  161.7885 H       1  UNL1        0.2985
     19 N         141.6728  145.5922  159.9983 N.2     1  UNL1       -0.0985
     20 C         140.4228  144.9394  160.5095 C.2     1  UNL1        0.3224
     21 H         142.0855  146.3290  160.5042 H       1  UNL1        0.3633
     22 C         139.7939  143.8167  159.7386 C.ar    1  UNL1        0.1114
     23 C         138.8722  142.7726  160.2957 C.ar    1  UNL1        0.0144
     24 C         138.4849  141.8516  159.1767 C.ar    1  UNL1        0.0077
     25 C         139.1673  142.3266  157.9282 C.ar    1  UNL1        0.0357
     26 S         139.9763  143.5411  158.2755 S.2     1  UNL1       -0.0792
@<TRIPOS>BOND
     1    19    20    2
     2    20    17    1
     3    17     1    1
     4     1     2   ar
     5     2     3   ar
     6     3     4   ar
     7     4     5   ar
     8     5     6   ar
     9     5     7    1
    10     7     8    1
    11     8     9    1
    12     9    10    1
    13    10    11    1
    14    11    12    1
    15    12    13    1
    16    13    14    1
    17    14    15    1
    18    20    22    1
    19    22    23   ar
    20    23    24   ar
    21    24    25   ar
    22    25    26   ar
    23     6     1   ar
    24    15    10    1
    25    26    22   ar
    26     9     4    1
    27    19    21    1
    28    17    18    1
    29    13    16    1
@<TRIPOS>MOLECULE
*****
 26 29 0 0 0
SMALL
GASTEIGER

@<TRIPOS>ATOM
      1 C         142.1370  140.6789  166.5881 C.ar    1  UNL1        0.1354
      2 C         140.9587  140.9097  165.6892 C.ar    1  UNL1        0.0414
      3 C         141.0022  142.0009  164.6609 C.ar    1  UNL1        0.0177
      4 C         142.2241  142.8612  164.5315 C.ar    1  UNL1        0.0440
      5 C         143.4025  142.6304  165.4304 C.ar    1  UNL1       -0.0038
      6 C         143.3590  141.5392  166.4587 C.ar    1  UNL1        0.0372
      7 C         144.4615  143.6306  165.0725 C.3     1  UNL1        0.0491
      8 C         143.9375  144.4797  163.9524 C.3     1  UNL1        0.0954
      9 N         142.5548  144.0042  163.6180 N.pl3   1  UNL1       -0.3089
     10 C         141.6598  144.5719  162.5566 C.3     1  UNL1        0.0755
     11 C         141.8797  144.2099  161.1176 C.3     1  UNL1        0.0368
     12 C         140.9847  144.7776  160.0562 C.3     1  UNL1        0.0703
     13 N         139.8698  145.7073  160.4337 N.3     1  UNL1       -0.2974
     14 C         139.6498  146.0693  161.8727 C.3     1  UNL1        0.0703
     15 C         140.5448  145.5016  162.9341 C.3     1  UNL1        0.0368
     16 H         139.0050  145.2800  160.1021 H       1  UNL1        0.1232
     17 N         142.0936  139.5877  167.6165 N.pl3   1  UNL1       -0.1990
     18 H         142.0690  138.6451  167.3333 H       1  UNL1        0.2985
     19 N         142.6825  138.9834  170.0737 N.2     1  UNL1       -0.0985
     20 C         142.0875  139.9326  169.0762 C.2     1  UNL1        0.3224
     21 H         143.0770  138.1340  169.7702 H       1  UNL1        0.3633
     22 C         141.4863  141.2268  169.5386 C.ar    1  UNL1        0.1114
     23 C         142.2058  142.5367  169.6675 C.ar    1  UNL1        0.0144
     24 C         141.2243  143.5579  170.1618 C.ar    1  UNL1        0.0077
     25 C         139.8984  142.8789  170.3383 C.ar    1  UNL1        0.0357
     26 S         140.0604  141.4383  169.9531 S.2     1  UNL1       -0.0792
@<TRIPOS>BOND
     1    19    20    2
     2    20    17    1
     3    17     1    1
     4     1     2   ar
     5     2     3   ar
     6     3     4   ar
     7     4     5   ar
     8     5     6   ar
     9     5     7    1
    10     7     8    1
    11     8     9    1
    12     9    10    1
    13    10    11    1
    14    11    12    1
    15    12    13    1
    16    13    14    1
    17    14    15    1
    18    20    22    1
    19    22    23   ar
    20    23    24   ar
    21    24    25   ar
    22    25    26   ar
    23     6     1   ar
    24    15    10    1
    25    26    22   ar
    26     9     4    1
    27    19    21    1
    28    17    18    1
    29    13    16    1
@<TRIPOS>MOLECULE
*****
 26 29 0 0 0
SMALL
GASTEIGER

@<TRIPOS>ATOM
      1 C         142.5237  142.3929  163.3485 C.ar    1  UNL1        0.1354
      2 C         142.2887  143.3280  164.4975 C.ar    1  UNL1        0.0414
      3 C         142.3114  142.8081  165.9043 C.ar    1  UNL1        0.0177
      4 C         142.5693  141.3531  166.1621 C.ar    1  UNL1        0.0440
      5 C         142.8043  140.4180  165.0132 C.ar    1  UNL1       -0.0038
      6 C         142.7816  140.9379  163.6063 C.ar    1  UNL1        0.0372
      7 C         143.0311  139.0447  165.5722 C.3     1  UNL1        0.0491
      8 C         142.9361  139.1310  167.0667 C.3     1  UNL1        0.0954
      9 N         142.6507  140.5577  167.4313 N.pl3   1  UNL1       -0.3089
     10 C         142.4772  141.0948  168.8211 C.3     1  UNL1        0.0755
     11 C         143.1920  142.3465  169.2361 C.3     1  UNL1        0.0368
     12 C         143.0184  142.8835  170.6259 C.3     1  UNL1        0.0703
     13 N         142.1301  142.1689  171.6006 N.3     1  UNL1       -0.2974
     14 C         141.4152  140.9172  171.1856 C.3     1  UNL1        0.0703
     15 C         141.5888  140.3802  169.7958 C.3     1  UNL1        0.0368
     16 H         141.4137  142.8351  171.8893 H       1  UNL1        0.1232
     17 N         142.5010  142.9127  161.9416 N.pl3   1  UNL1       -0.1990
     18 H         143.1554  142.5828  161.2843 H       1  UNL1        0.2985
     19 N         141.8945  145.1246  160.7211 N.2     1  UNL1       -0.0985
     20 C         141.4811  143.9352  161.5362 C.2     1  UNL1        0.3224
     21 H         142.8352  145.2342  160.4522 H       1  UNL1        0.3633
     22 C         140.0478  143.7683  161.9460 C.ar    1  UNL1        0.1114
     23 C         139.2610  144.7128  162.8056 C.ar    1  UNL1        0.0144
     24 C         137.8766  144.1559  162.9590 C.ar    1  UNL1        0.0077
     25 C         137.8079  142.8673  162.1942 C.ar    1  UNL1        0.0357
     26 S         139.1498  142.6278  161.5681 S.2     1  UNL1       -0.0792
@<TRIPOS>BOND
     1    19    20    2
     2    20    17    1
     3    17     1    1
     4     1     2   ar
     5     2     3   ar
     6     3     4   ar
     7     4     5   ar
     8     5     6   ar
     9     5     7    1
    10     7     8    1
    11     8     9    1
    12     9    10    1
    13    10    11    1
    14    11    12    1
    15    12    13    1
    16    13    14    1
    17    14    15    1
    18    20    22    1
    19    22    23   ar
    20    23    24   ar
    21    24    25   ar
    22    25    26   ar
    23     6     1   ar
    24    15    10    1
    25    26    22   ar
    26     9     4    1
    27    19    21    1
    28    17    18    1
    29    13    16    1
@<TRIPOS>MOLECULE
*****
 26 29 0 0 0
SMALL
GASTEIGER

@<TRIPOS>ATOM
      1 C         142.7257  140.0223  163.5649 C.ar    1  UNL1        0.1354
      2 C         143.3120  139.6694  164.8997 C.ar    1  UNL1        0.0414
      3 C         142.8435  140.3783  166.1357 C.ar    1  UNL1        0.0177
      4 C         141.7886  141.4401  166.0370 C.ar    1  UNL1        0.0440
      5 C         141.2023  141.7931  164.7023 C.ar    1  UNL1       -0.0038
      6 C         141.6708  141.0841  163.4662 C.ar    1  UNL1        0.0372
      7 C         140.1846  142.8744  164.9143 C.3     1  UNL1        0.0491
      8 C         140.1420  143.1898  166.3802 C.3     1  UNL1        0.0954
      9 N         141.1333  142.3034  167.0741 N.pl3   1  UNL1       -0.3089
     10 C         141.4192  142.2837  168.5464 C.3     1  UNL1        0.0755
     11 C         142.8114  142.5377  169.0436 C.3     1  UNL1        0.0368
     12 C         143.0972  142.5180  170.5160 C.3     1  UNL1        0.0703
     13 N         141.9908  142.2442  171.4912 N.3     1  UNL1       -0.2974
     14 C         140.5986  141.9901  170.9940 C.3     1  UNL1        0.0703
     15 C         140.3128  142.0099  169.5216 C.3     1  UNL1        0.0368
     16 H         141.9389  143.0518  172.1120 H       1  UNL1        0.1232
     17 N         143.1942  139.3133  162.3288 N.pl3   1  UNL1       -0.1990
     18 H         144.0138  139.6107  161.8715 H       1  UNL1        0.2985
     19 N         143.0948  137.1219  160.9369 N.2     1  UNL1       -0.0985
     20 C         142.4140  138.1514  161.7894 C.2     1  UNL1        0.3224
     21 H         144.0536  137.2088  160.7314 H       1  UNL1        0.3633
     22 C         140.9530  138.0188  162.1024 C.ar    1  UNL1        0.1114
     23 C         140.3694  137.4788  163.3743 C.ar    1  UNL1        0.0144
     24 C         138.8748  137.5293  163.2566 C.ar    1  UNL1        0.0077
     25 C         138.5348  138.1005  161.9118 C.ar    1  UNL1        0.0357
     26 S         139.8192  138.4030  161.1985 S.2     1  UNL1       -0.0792
@<TRIPOS>BOND
     1    19    20    2
     2    20    17    1
     3    17     1    1
     4     1     2   ar
     5     2     3   ar
     6     3     4   ar
     7     4     5   ar
     8     5     6   ar
     9     5     7    1
    10     7     8    1
    11     8     9    1
    12     9    10    1
    13    10    11    1
    14    11    12    1
    15    12    13    1
    16    13    14    1
    17    14    15    1
    18    20    22    1
    19    22    23   ar
    20    23    24   ar
    21    24    25   ar
    22    25    26   ar
    23     6     1   ar
    24    15    10    1
    25    26    22   ar
    26     9     4    1
    27    19    21    1
    28    17    18    1
    29    13    16    1
@<TRIPOS>MOLECULE
*****
 26 29 0 0 0
SMALL
GASTEIGER

@<TRIPOS>ATOM
      1 C         142.6272  141.7422  167.0768 C.ar    1  UNL1        0.1354
      2 C         141.5076  142.3709  166.3014 C.ar    1  UNL1        0.0414
      3 C         140.7794  141.5766  165.2579 C.ar    1  UNL1        0.0177
      4 C         141.1710  140.1537  164.9898 C.ar    1  UNL1        0.0440
      5 C         142.2906  139.5250  165.7651 C.ar    1  UNL1       -0.0038
      6 C         143.0187  140.3193  166.8086 C.ar    1  UNL1        0.0372
      7 C         142.4517  138.1133  165.2844 C.3     1  UNL1        0.0491
      8 C         141.4316  137.8694  164.2120 C.3     1  UNL1        0.0954
      9 N         140.6401  139.1305  164.0299 N.pl3   1  UNL1       -0.3089
     10 C         139.5152  139.3328  163.0585 C.3     1  UNL1        0.0755
     11 C         138.6997  138.1602  162.6004 C.3     1  UNL1        0.0368
     12 C         137.5748  138.3626  161.6290 C.3     1  UNL1        0.0703
     13 N         137.2654  139.7377  161.1157 N.3     1  UNL1       -0.2974
     14 C         138.0809  140.9103  161.5738 C.3     1  UNL1        0.0703
     15 C         139.2057  140.7079  162.5452 C.3     1  UNL1        0.0368
     16 H         136.2973  139.9355  161.3687 H       1  UNL1        0.1232
     17 N         143.3554  142.5365  168.1203 N.pl3   1  UNL1       -0.1990
     18 H         144.1524  143.0592  167.8739 H       1  UNL1        0.2985
     19 N         143.6315  143.2796  170.5945 N.2     1  UNL1       -0.0985
     20 C         142.8691  142.5344  169.5393 C.2     1  UNL1        0.3224
     21 H         144.4511  143.7701  170.3557 H       1  UNL1        0.3633
     22 C         141.6204  141.7870  169.9031 C.ar    1  UNL1        0.1114
     23 C         140.2155  142.2890  169.7471 C.ar    1  UNL1        0.0144
     24 C         139.2842  141.2188  170.2344 C.ar    1  UNL1        0.0077
     25 C         140.1136  140.0555  170.6915 C.ar    1  UNL1        0.0357
     26 S         141.5574  140.4067  170.4868 S.2     1  UNL1       -0.0792
@<TRIPOS>BOND
     1    19    20    2
     2    20    17    1
     3    17     1    1
     4     1     2   ar
     5     2     3   ar
     6     3     4   ar
     7     4     5   ar
     8     5     6   ar
     9     5     7    1
    10     7     8    1
    11     8     9    1
    12     9    10    1
    13    10    11    1
    14    11    12    1
    15    12    13    1
    16    13    14    1
    17    14    15    1
    18    20    22    1
    19    22    23   ar
    20    23    24   ar
    21    24    25   ar
    22    25    26   ar
    23     6     1   ar
    24    15    10    1
    25    26    22   ar
    26     9     4    1
    27    19    21    1
    28    17    18    1
    29    13    16    1
