@<TRIPOS>MOLECULE
*****
 12 13 0 0 0
SMALL
GASTEIGER

@<TRIPOS>ATOM
      1 C         142.3688  139.3460  166.5197 C.3     1  UNL1        0.0899
      2 N         140.9214  139.1785  166.1634 N.3     1  UNL1       -0.2691
      3 C         140.3789  138.3205  165.0592 C.3     1  UNL1        0.0724
      4 C         138.8846  138.4512  165.0620 C.3     1  UNL1        0.0191
      5 C         138.5036  139.3901  166.1681 C.3     1  UNL1        0.0220
      6 C         139.7625  139.8396  166.8488 C.3     1  UNL1        0.0817
      7 C         139.8474  140.7844  168.0108 C.ar    1  UNL1        0.0114
      8 C         140.4380  142.1506  167.8251 C.ar    1  UNL1        0.0002
      9 C         140.5229  143.0952  168.9871 C.ar    1  UNL1        0.0204
     10 C         140.0172  142.6737  170.3349 C.ar    1  UNL1        0.0989
     11 N         139.4265  141.3074  170.5206 N.ar    1  UNL1       -0.2426
     12 C         139.3416  140.3628  169.3586 C.ar    1  UNL1        0.0959
@<TRIPOS>BOND
     1     1     2    1
     2     2     3    1
     3     3     4    1
     4     4     5    1
     5     5     6    1
     6     6     7    1
     7     7     8   ar
     8     8     9   ar
     9     9    10   ar
    10    10    11   ar
    11    11    12   ar
    12     6     2    1
    13    12     7   ar
@<TRIPOS>MOLECULE
*****
 12 13 0 0 0
SMALL
GASTEIGER

@<TRIPOS>ATOM
      1 C         137.4109  141.4916  163.2974 C.3     1  UNL1        0.0899
      2 N         137.9023  140.1062  162.9988 N.3     1  UNL1       -0.2691
      3 C         137.8426  139.4174  161.6677 C.3     1  UNL1        0.0724
      4 C         138.4432  138.0518  161.8250 C.3     1  UNL1        0.0191
      5 C         138.8740  137.8968  163.2534 C.3     1  UNL1        0.0220
      6 C         138.5398  139.1665  163.9788 C.3     1  UNL1        0.0817
      7 C         138.7978  139.4471  165.4297 C.ar    1  UNL1        0.0114
      8 C         139.8887  140.3965  165.8275 C.ar    1  UNL1        0.0002
      9 C         140.1466  140.6771  167.2782 C.ar    1  UNL1        0.0204
     10 C         139.3136  140.0083  168.3312 C.ar    1  UNL1        0.0989
     11 N         138.2226  139.0588  167.9333 N.ar    1  UNL1       -0.2426
     12 C         137.9647  138.7783  166.4826 C.ar    1  UNL1        0.0959
@<TRIPOS>BOND
     1     1     2    1
     2     2     3    1
     3     3     4    1
     4     4     5    1
     5     5     6    1
     6     6     7    1
     7     7     8   ar
     8     8     9   ar
     9     9    10   ar
    10    10    11   ar
    11    11    12   ar
    12     6     2    1
    13    12     7   ar
@<TRIPOS>MOLECULE
*****
 12 13 0 0 0
SMALL
GASTEIGER

@<TRIPOS>ATOM
      1 C         140.1049  143.3177  165.5568 C.3     1  UNL1        0.0899
      2 N         139.7230  141.9479  166.0339 N.3     1  UNL1       -0.2691
      3 C         138.8369  140.9776  165.3104 C.3     1  UNL1        0.0724
      4 C         138.7263  139.7378  166.1475 C.3     1  UNL1        0.0191
      5 C         139.5441  139.9419  167.3883 C.3     1  UNL1        0.0220
      6 C         140.1601  141.3078  167.3181 C.3     1  UNL1        0.0817
      7 C         141.0559  141.9251  168.3508 C.ar    1  UNL1        0.0114
      8 C         142.4931  141.5060  168.4440 C.ar    1  UNL1        0.0002
      9 C         143.3888  142.1234  169.4767 C.ar    1  UNL1        0.0204
     10 C         142.8474  143.1599  170.4161 C.ar    1  UNL1        0.0989
     11 N         141.4101  143.5790  170.3229 N.ar    1  UNL1       -0.2426
     12 C         140.5144  142.9616  169.2902 C.ar    1  UNL1        0.0959
@<TRIPOS>BOND
     1     1     2    1
     2     2     3    1
     3     3     4    1
     4     4     5    1
     5     5     6    1
     6     6     7    1
     7     7     8   ar
     8     8     9   ar
     9     9    10   ar
    10    10    11   ar
    11    11    12   ar
    12     6     2    1
    13    12     7   ar
@<TRIPOS>MOLECULE
*****
 12 13 0 0 0
SMALL
GASTEIGER

@<TRIPOS>ATOM
      1 C         138.3663  139.5115  166.1198 C.3     1  UNL1        0.0899
      2 N         139.8540  139.3199  166.1238 N.3     1  UNL1       -0.2691
      3 C         140.6355  138.4654  165.1703 C.3     1  UNL1        0.0724
      4 C         142.0860  138.5666  165.5392 C.3     1  UNL1        0.0191
      5 C         142.2008  139.4836  166.7207 C.3     1  UNL1        0.0220
      6 C         140.8214  139.9492  167.0820 C.3     1  UNL1        0.0817
      7 C         140.4710  140.8805  168.2044 C.ar    1  UNL1        0.0114
      8 C         140.8097  142.3382  168.1029 C.ar    1  UNL1        0.0002
      9 C         140.4593  143.2695  169.2253 C.ar    1  UNL1        0.0204
     10 C         139.7701  142.7431  170.4493 C.ar    1  UNL1        0.0989
     11 N         139.4314  141.2854  170.5508 N.ar    1  UNL1       -0.2426
     12 C         139.7819  140.3541  169.4283 C.ar    1  UNL1        0.0959
@<TRIPOS>BOND
     1     1     2    1
     2     2     3    1
     3     3     4    1
     4     4     5    1
     5     5     6    1
     6     6     7    1
     7     7     8   ar
     8     8     9   ar
     9     9    10   ar
    10    10    11   ar
    11    11    12   ar
    12     6     2    1
    13    12     7   ar
@<TRIPOS>MOLECULE
*****
 12 13 0 0 0
SMALL
GASTEIGER

@<TRIPOS>ATOM
      1 C         138.0017  138.6296  166.4732 C.3     1  UNL1        0.0899
      2 N         138.5972  139.8970  165.9356 N.3     1  UNL1       -0.2691
      3 C         138.0851  140.6852  164.7667 C.3     1  UNL1        0.0724
      4 C         138.9807  141.8742  164.5811 C.3     1  UNL1        0.0191
      5 C         140.0463  141.8207  165.6355 C.3     1  UNL1        0.0220
      6 C         139.8093  140.5988  166.4726 C.3     1  UNL1        0.0817
      7 C         140.6387  140.1563  167.6415 C.ar    1  UNL1        0.0114
      8 C         140.0717  140.2158  169.0289 C.ar    1  UNL1        0.0002
      9 C         140.9012  139.7734  170.1977 C.ar    1  UNL1        0.0204
     10 C         142.2977  139.2715  169.9791 C.ar    1  UNL1        0.0989
     11 N         142.8648  139.2120  168.5917 N.ar    1  UNL1       -0.2426
     12 C         142.0353  139.6544  167.4229 C.ar    1  UNL1        0.0959
@<TRIPOS>BOND
     1     1     2    1
     2     2     3    1
     3     3     4    1
     4     4     5    1
     5     5     6    1
     6     6     7    1
     7     7     8   ar
     8     8     9   ar
     9     9    10   ar
    10    10    11   ar
    11    11    12   ar
    12     6     2    1
    13    12     7   ar
@<TRIPOS>MOLECULE
*****
 12 13 0 0 0
SMALL
GASTEIGER

@<TRIPOS>ATOM
      1 C         139.5158  139.7509  162.4963 C.3     1  UNL1        0.0899
      2 N         139.0676  139.2546  163.8389 N.3     1  UNL1       -0.2691
      3 C         138.8941  137.8183  164.2350 C.3     1  UNL1        0.0724
      4 C         138.4334  137.7833  165.6622 C.3     1  UNL1        0.0191
      5 C         138.3221  139.1981  166.1480 C.3     1  UNL1        0.0220
      6 C         138.7141  140.1074  165.0212 C.3     1  UNL1        0.0817
      7 C         138.7467  141.6063  165.0684 C.ar    1  UNL1        0.0114
      8 C         137.6908  142.4022  164.3602 C.ar    1  UNL1        0.0002
      9 C         137.7236  143.9011  164.4074 C.ar    1  UNL1        0.0204
     10 C         138.8122  144.6041  165.1629 C.ar    1  UNL1        0.0989
     11 N         139.8681  143.8082  165.8711 N.ar    1  UNL1       -0.2426
     12 C         139.8353  142.3093  165.8239 C.ar    1  UNL1        0.0959
@<TRIPOS>BOND
     1     1     2    1
     2     2     3    1
     3     3     4    1
     4     4     5    1
     5     5     6    1
     6     6     7    1
     7     7     8   ar
     8     8     9   ar
     9     9    10   ar
    10    10    11   ar
    11    11    12   ar
    12     6     2    1
    13    12     7   ar
@<TRIPOS>MOLECULE
*****
 12 13 0 0 0
SMALL
GASTEIGER

@<TRIPOS>ATOM
      1 C         143.6532  142.6060  165.1431 C.3     1  UNL1        0.0899
      2 N         143.4144  141.2077  165.6308 N.3     1  UNL1       -0.2691
      3 C         143.7512  139.9467  164.8917 C.3     1  UNL1        0.0724
      4 C         143.3418  138.7845  165.7473 C.3     1  UNL1        0.0191
      5 C         142.7520  139.3274  167.0151 C.3     1  UNL1        0.0220
      6 C         142.7968  140.8250  166.9431 C.3     1  UNL1        0.0817
      7 C         142.3096  141.7735  167.9982 C.ar    1  UNL1        0.0114
      8 C         140.8904  142.2583  167.9734 C.ar    1  UNL1        0.0002
      9 C         140.4033  143.2066  169.0285 C.ar    1  UNL1        0.0204
     10 C         141.3354  143.6702  170.1084 C.ar    1  UNL1        0.0989
     11 N         142.7546  143.1854  170.1333 N.ar    1  UNL1       -0.2426
     12 C         143.2418  142.2370  169.0782 C.ar    1  UNL1        0.0959
@<TRIPOS>BOND
     1     1     2    1
     2     2     3    1
     3     3     4    1
     4     4     5    1
     5     5     6    1
     6     6     7    1
     7     7     8   ar
     8     8     9   ar
     9     9    10   ar
    10    10    11   ar
    11    11    12   ar
    12     6     2    1
    13    12     7   ar
@<TRIPOS>MOLECULE
*****
 12 13 0 0 0
SMALL
GASTEIGER

@<TRIPOS>ATOM
      1 C         140.4904  139.4765  162.6074 C.3     1  UNL1        0.0899
      2 N         139.6337  139.2561  163.8188 N.3     1  UNL1       -0.2691
      3 C         139.5028  137.9729  164.5845 C.3     1  UNL1        0.0724
      4 C         138.5456  138.2039  165.7161 C.3     1  UNL1        0.0191
      5 C         138.0849  139.6299  165.6497 C.3     1  UNL1        0.0220
      6 C         138.7574  140.2802  164.4771 C.3     1  UNL1        0.0817
      7 C         138.5839  141.7045  164.0397 C.ar    1  UNL1        0.0114
      8 C         139.0838  142.8216  164.9070 C.ar    1  UNL1        0.0002
      9 C         138.9103  144.2458  164.4695 C.ar    1  UNL1        0.0204
     10 C         138.2370  144.5530  163.1648 C.ar    1  UNL1        0.0989
     11 N         137.7372  143.4359  162.2975 N.ar    1  UNL1       -0.2426
     12 C         137.9106  142.0116  162.7350 C.ar    1  UNL1        0.0959
@<TRIPOS>BOND
     1     1     2    1
     2     2     3    1
     3     3     4    1
     4     4     5    1
     5     5     6    1
     6     6     7    1
     7     7     8   ar
     8     8     9   ar
     9     9    10   ar
    10    10    11   ar
    11    11    12   ar
    12     6     2    1
    13    12     7   ar
@<TRIPOS>MOLECULE
*****
 12 13 0 0 0
SMALL
GASTEIGER

@<TRIPOS>ATOM
      1 C         139.8858  141.5696  162.8051 C.3     1  UNL1        0.0899
      2 N         139.2864  142.6781  163.6186 N.3     1  UNL1       -0.2691
      3 C         137.8293  143.0253  163.6974 C.3     1  UNL1        0.0724
      4 C         137.6811  144.1959  164.6237 C.3     1  UNL1        0.0191
      5 C         139.0467  144.5721  165.1173 C.3     1  UNL1        0.0220
      6 C         140.0388  143.6340  164.4961 C.3     1  UNL1        0.0817
      7 C         141.5229  143.6493  164.7142 C.ar    1  UNL1        0.0114
      8 C         142.3750  144.6584  164.0032 C.ar    1  UNL1        0.0002
      9 C         143.8590  144.6736  164.2214 C.ar    1  UNL1        0.0204
     10 C         144.4907  143.6798  165.1505 C.ar    1  UNL1        0.0989
     11 N         143.6386  142.6707  165.8614 N.ar    1  UNL1       -0.2426
     12 C         142.1546  142.6555  165.6433 C.ar    1  UNL1        0.0959
@<TRIPOS>BOND
     1     1     2    1
     2     2     3    1
     3     3     4    1
     4     4     5    1
     5     5     6    1
     6     6     7    1
     7     7     8   ar
     8     8     9   ar
     9     9    10   ar
    10    10    11   ar
    11    11    12   ar
    12     6     2    1
    13    12     7   ar
