@<TRIPOS>MOLECULE
*****
 35 37 0 0 0
SMALL
GASTEIGER

@<TRIPOS>ATOM
      1 C         143.0056  140.4012  165.3823 C.2     1  UNL1        0.2521
      2 O         144.0293  139.3058  165.3380 O.2     1  UNL1       -0.2698
      3 N         142.7348  141.2246  164.1582 N.am    1  UNL1       -0.2725
      4 C         141.7110  142.3201  164.2025 C.3     1  UNL1        0.1152
      5 C         141.4402  143.1435  162.9783 C.3     1  UNL1        0.1137
      6 N         142.1932  142.8715  161.7098 N.pl3   1  UNL1       -0.2885
      7 C         143.2169  141.7760  161.6655 C.3     1  UNL1        0.1137
      8 C         143.4877  140.9526  162.8897 C.3     1  UNL1        0.1152
      9 C         140.9158  140.0332  166.8815 C.ar    1  UNL1        0.1432
     10 C         140.1629  140.3052  168.1500 C.ar    1  UNL1        0.0384
     11 C         140.7468  141.2174  169.1878 C.ar    1  UNL1        0.0215
     12 C         142.0836  141.8574  168.9572 C.ar    1  UNL1        0.1061
     13 C         142.8365  141.5854  167.6887 C.ar    1  UNL1        0.0259
     14 C         142.2526  140.6732  166.6509 C.ar    1  UNL1        0.0887
     15 S         142.6675  142.7696  169.9950 S.O2    1  UNL1        0.0105
     16 C         143.2514  143.6817  171.0328 C.3     1  UNL1        0.1816
     17 O         141.3373  142.8362  170.6849 O.2     1  UNL1       -0.1686
     18 O         143.9978  142.7030  169.3051 O.2     1  UNL1       -0.1686
     19 O         140.3319  139.1210  165.8437 O.3     1  UNL1       -0.4702
     20 C         138.1123  140.0764  164.8896 C.3     1  UNL1        0.0566
     21 C         138.8441  139.0300  165.6768 C.3     1  UNL1        0.2599
     22 C         138.0879  137.8927  166.2970 C.3     1  UNL1        0.4340
     23 F         137.3317  136.7554  166.9173 F       1  UNL1       -0.1664
     24 F         138.8474  136.9216  165.4426 F       1  UNL1       -0.1664
     25 F         137.3283  138.8637  167.1515 F       1  UNL1       -0.1664
     26 C         141.9224  143.6949  160.4856 C.ar    1  UNL1        0.1512
     27 C         140.7559  144.6376  160.4588 C.ar    1  UNL1        0.1330
     28 N         140.4851  145.4610  159.2346 N.ar    1  UNL1       -0.2354
     29 C         141.3808  145.3417  158.0372 C.ar    1  UNL1        0.1719
     30 C         142.5472  144.3990  158.0641 C.ar    1  UNL1        0.1234
     31 N         142.8180  143.5756  159.2883 N.ar    1  UNL1       -0.2260
     32 C         141.1100  146.1651  156.8130 C.3     1  UNL1        0.4363
     33 F         140.8392  146.9886  155.5888 F       1  UNL1       -0.1644
     34 F         142.3796  145.6612  156.1932 F       1  UNL1       -0.1644
     35 F         139.8404  146.6691  157.4328 F       1  UNL1       -0.1644
@<TRIPOS>BOND
     1    20    21    1
     2    21    19    1
     3    19     9    1
     4     9    10   ar
     5    10    11   ar
     6    11    12   ar
     7    12    15    1
     8    15    16    1
     9    15    17    2
    10    15    18    2
    11    12    13   ar
    12    13    14   ar
    13    14     1    1
    14     1     2    2
    15     1     3   am
    16     3     4    1
    17     4     5    1
    18     5     6    1
    19     6    26    1
    20    26    27   ar
    21    27    28   ar
    22    28    29   ar
    23    29    32    1
    24    32    33    1
    25    32    34    1
    26    32    35    1
    27    29    30   ar
    28    30    31   ar
    29     6     7    1
    30     7     8    1
    31    21    22    1
    32    22    23    1
    33    22    24    1
    34    22    25    1
    35    14     9   ar
    36     8     3    1
    37    31    26   ar
@<TRIPOS>MOLECULE
*****
 35 37 0 0 0
SMALL
GASTEIGER

@<TRIPOS>ATOM
      1 C         139.2557  142.3004  164.5968 C.2     1  UNL1        0.2521
      2 O         138.0073  143.1179  164.4443 O.2     1  UNL1       -0.2698
      3 N         140.1885  142.1320  163.4343 N.am    1  UNL1       -0.2725
      4 C         141.4370  141.3145  163.5868 C.3     1  UNL1        0.1152
      5 C         142.3698  141.1461  162.4243 C.3     1  UNL1        0.1137
      6 N         142.0542  141.7952  161.1093 N.pl3   1  UNL1       -0.2885
      7 C         140.8058  142.6127  160.9568 C.3     1  UNL1        0.1137
      8 C         139.8730  142.7811  162.1193 C.3     1  UNL1        0.1152
      9 C         139.0106  140.2979  166.2338 C.ar    1  UNL1        0.1432
     10 C         139.3262  139.6489  167.5487 C.ar    1  UNL1        0.0384
     11 C         140.2025  140.3533  168.5417 C.ar    1  UNL1        0.0215
     12 C         140.7631  141.7068  168.2197 C.ar    1  UNL1        0.1061
     13 C         140.4475  142.3558  166.9047 C.ar    1  UNL1        0.0259
     14 C         139.5713  141.6513  165.9118 C.ar    1  UNL1        0.0887
     15 S         141.6393  142.4113  169.2126 S.O2    1  UNL1        0.0105
     16 C         142.5155  143.1158  170.2056 C.3     1  UNL1        0.1816
     17 O         142.6903  141.3561  169.0338 O.2     1  UNL1       -0.1686
     18 O         140.5883  143.4665  169.3915 O.2     1  UNL1       -0.1686
     19 O         138.1344  139.5934  165.2408 O.3     1  UNL1       -0.4702
     20 C         138.3793  139.0093  162.7211 C.3     1  UNL1        0.0566
     21 C         138.7499  138.7632  164.1537 C.3     1  UNL1        0.2599
     22 C         139.7361  137.6870  164.4990 C.3     1  UNL1        0.4340
     23 F         140.7222  136.6108  164.8443 F       1  UNL1       -0.1664
     24 F         138.7566  137.1018  165.4727 F       1  UNL1       -0.1664
     25 F         140.7156  138.2721  163.5253 F       1  UNL1       -0.1664
     26 C         142.9871  141.6268  159.9467 C.ar    1  UNL1        0.1512
     27 C         143.2308  140.2627  159.3722 C.ar    1  UNL1        0.1330
     28 N         144.1637  140.0943  158.2097 N.ar    1  UNL1       -0.2354
     29 C         144.8528  141.2900  157.6217 C.ar    1  UNL1        0.1719
     30 C         144.6090  142.6540  158.1963 C.ar    1  UNL1        0.1234
     31 N         143.6761  142.8224  159.3588 N.ar    1  UNL1       -0.2260
     32 C         145.7856  141.1216  156.4592 C.3     1  UNL1        0.4363
     33 F         146.7185  140.9532  155.2967 F       1  UNL1       -0.1644
     34 F         146.4557  142.4171  156.8093 F       1  UNL1       -0.1644
     35 F         145.1155  139.8260  156.1092 F       1  UNL1       -0.1644
@<TRIPOS>BOND
     1    20    21    1
     2    21    19    1
     3    19     9    1
     4     9    10   ar
     5    10    11   ar
     6    11    12   ar
     7    12    15    1
     8    15    16    1
     9    15    17    2
    10    15    18    2
    11    12    13   ar
    12    13    14   ar
    13    14     1    1
    14     1     2    2
    15     1     3   am
    16     3     4    1
    17     4     5    1
    18     5     6    1
    19     6    26    1
    20    26    27   ar
    21    27    28   ar
    22    28    29   ar
    23    29    32    1
    24    32    33    1
    25    32    34    1
    26    32    35    1
    27    29    30   ar
    28    30    31   ar
    29     6     7    1
    30     7     8    1
    31    21    22    1
    32    22    23    1
    33    22    24    1
    34    22    25    1
    35    14     9   ar
    36     8     3    1
    37    31    26   ar
@<TRIPOS>MOLECULE
*****
 35 37 0 0 0
SMALL
GASTEIGER

@<TRIPOS>ATOM
      1 C         144.2290  141.2603  164.2186 C.2     1  UNL1        0.2521
      2 O         145.6816  140.8892  164.1701 O.2     1  UNL1       -0.2698
      3 N         143.6177  142.0457  163.0964 N.am    1  UNL1       -0.2725
      4 C         142.1651  142.4168  163.1449 C.3     1  UNL1        0.1152
      5 C         141.5538  143.2022  162.0227 C.3     1  UNL1        0.1137
      6 N         142.3951  143.6167  160.8520 N.pl3   1  UNL1       -0.2885
      7 C         143.8477  143.2456  160.8035 C.3     1  UNL1        0.1137
      8 C         144.4590  142.4602  161.9257 C.3     1  UNL1        0.1152
      9 C         142.7647  139.4817  165.4196 C.ar    1  UNL1        0.1432
     10 C         141.9234  139.0673  166.5903 C.ar    1  UNL1        0.0384
     11 C         141.7051  140.0171  167.7306 C.ar    1  UNL1        0.0215
     12 C         142.3281  141.3812  167.7003 C.ar    1  UNL1        0.1061
     13 C         143.1694  141.7956  166.5296 C.ar    1  UNL1        0.0259
     14 C         143.3877  140.8458  165.3893 C.ar    1  UNL1        0.0887
     15 S         142.1099  142.3309  168.8406 S.O2    1  UNL1        0.0105
     16 C         141.8916  143.2807  169.9809 C.3     1  UNL1        0.1816
     17 O         143.5821  142.6143  168.8864 O.2     1  UNL1       -0.1686
     18 O         140.6376  142.0476  168.7947 O.2     1  UNL1       -0.1686
     19 O         142.9830  138.5319  164.2793 O.3     1  UNL1       -0.4702
     20 C         142.3234  138.8829  161.7910 C.3     1  UNL1        0.0566
     21 C         141.9688  138.4362  163.1783 C.3     1  UNL1        0.2599
     22 C         140.5999  137.8937  163.4646 C.3     1  UNL1        0.4340
     23 F         139.2310  137.3513  163.7509 F       1  UNL1       -0.1664
     24 F         141.1897  136.5375  163.7151 F       1  UNL1       -0.1664
     25 F         140.0101  139.2499  163.2142 F       1  UNL1       -0.1664
     26 C         141.7838  144.4021  159.7297 C.ar    1  UNL1        0.1512
     27 C         140.4148  144.9947  159.8877 C.ar    1  UNL1        0.1330
     28 N         139.8035  145.7802  158.7655 N.ar    1  UNL1       -0.2354
     29 C         140.5612  145.9731  157.4853 C.ar    1  UNL1        0.1719
     30 C         141.9301  145.3806  157.3274 C.ar    1  UNL1        0.1234
     31 N         142.5414  144.5951  158.4496 N.ar    1  UNL1       -0.2260
     32 C         139.9499  146.7586  156.3631 C.3     1  UNL1        0.4363
     33 F         139.3386  147.5440  155.2409 F       1  UNL1       -0.1644
     34 F         140.7970  146.0096  155.3775 F       1  UNL1       -0.1644
     35 F         139.1028  147.5075  157.3488 F       1  UNL1       -0.1644
@<TRIPOS>BOND
     1    20    21    1
     2    21    19    1
     3    19     9    1
     4     9    10   ar
     5    10    11   ar
     6    11    12   ar
     7    12    15    1
     8    15    16    1
     9    15    17    2
    10    15    18    2
    11    12    13   ar
    12    13    14   ar
    13    14     1    1
    14     1     2    2
    15     1     3   am
    16     3     4    1
    17     4     5    1
    18     5     6    1
    19     6    26    1
    20    26    27   ar
    21    27    28   ar
    22    28    29   ar
    23    29    32    1
    24    32    33    1
    25    32    34    1
    26    32    35    1
    27    29    30   ar
    28    30    31   ar
    29     6     7    1
    30     7     8    1
    31    21    22    1
    32    22    23    1
    33    22    24    1
    34    22    25    1
    35    14     9   ar
    36     8     3    1
    37    31    26   ar
@<TRIPOS>MOLECULE
*****
 35 37 0 0 0
SMALL
GASTEIGER

@<TRIPOS>ATOM
      1 C         139.8032  139.6402  165.1326 C.2     1  UNL1        0.2521
      2 O         138.8759  138.4638  165.0539 O.2     1  UNL1       -0.2698
      3 N         139.9558  140.5551  163.9538 N.am    1  UNL1       -0.2725
      4 C         140.8831  141.7316  164.0326 C.3     1  UNL1        0.1152
      5 C         141.0357  142.6465  162.8537 C.3     1  UNL1        0.1137
      6 N         140.2610  142.3849  161.5961 N.pl3   1  UNL1       -0.2885
      7 C         139.3337  141.2085  161.5174 C.3     1  UNL1        0.1137
      8 C         139.1811  140.2936  162.6963 C.3     1  UNL1        0.1152
      9 C         141.9089  139.2433  166.6019 C.ar    1  UNL1        0.1432
     10 C         142.6835  139.5049  167.8594 C.ar    1  UNL1        0.0384
     11 C         142.1271  140.4249  168.9054 C.ar    1  UNL1        0.0215
     12 C         140.7962  141.0834  168.6937 C.ar    1  UNL1        0.1061
     13 C         140.0215  140.8218  167.4362 C.ar    1  UNL1        0.0259
     14 C         140.5779  139.9018  166.3903 C.ar    1  UNL1        0.0887
     15 S         140.2398  142.0035  169.7397 S.O2    1  UNL1        0.0105
     16 C         139.6835  142.9235  170.7856 C.3     1  UNL1        0.1816
     17 O         141.0367  143.1374  169.1660 O.2     1  UNL1       -0.1686
     18 O         139.4429  140.8695  170.3133 O.2     1  UNL1       -0.1686
     19 O         142.4652  138.3232  165.5560 O.3     1  UNL1       -0.4702
     20 C         144.2174  140.0024  164.6285 C.3     1  UNL1        0.0566
     21 C         143.2452  138.8825  164.4033 C.3     1  UNL1        0.2599
     22 C         143.0530  138.3219  163.0252 C.3     1  UNL1        0.4340
     23 F         142.8609  137.7614  161.6473 F       1  UNL1       -0.1664
     24 F         141.8136  137.6139  163.4860 F       1  UNL1       -0.1664
     25 F         144.2925  139.0299  162.5644 F       1  UNL1       -0.1664
     26 C         140.4136  143.2998  160.4173 C.ar    1  UNL1        0.1512
     27 C         141.3495  144.4696  160.4920 C.ar    1  UNL1        0.1330
     28 N         141.5021  145.3845  159.3132 N.ar    1  UNL1       -0.2354
     29 C         140.7187  145.1296  158.0596 C.ar    1  UNL1        0.1719
     30 C         139.7828  143.9599  157.9849 C.ar    1  UNL1        0.1234
     31 N         139.6302  143.0449  159.1637 N.ar    1  UNL1       -0.2260
     32 C         140.8713  146.0445  156.8807 C.3     1  UNL1        0.4363
     33 F         141.0239  146.9594  155.7019 F       1  UNL1       -0.1644
     34 F         142.3227  146.2289  157.2117 F       1  UNL1       -0.1644
     35 F         139.4200  145.8602  156.5498 F       1  UNL1       -0.1644
@<TRIPOS>BOND
     1    20    21    1
     2    21    19    1
     3    19     9    1
     4     9    10   ar
     5    10    11   ar
     6    11    12   ar
     7    12    15    1
     8    15    16    1
     9    15    17    2
    10    15    18    2
    11    12    13   ar
    12    13    14   ar
    13    14     1    1
    14     1     2    2
    15     1     3   am
    16     3     4    1
    17     4     5    1
    18     5     6    1
    19     6    26    1
    20    26    27   ar
    21    27    28   ar
    22    28    29   ar
    23    29    32    1
    24    32    33    1
    25    32    34    1
    26    32    35    1
    27    29    30   ar
    28    30    31   ar
    29     6     7    1
    30     7     8    1
    31    21    22    1
    32    22    23    1
    33    22    24    1
    34    22    25    1
    35    14     9   ar
    36     8     3    1
    37    31    26   ar
@<TRIPOS>MOLECULE
*****
 35 37 0 0 0
SMALL
GASTEIGER

@<TRIPOS>ATOM
      1 C         141.2669  140.1709  162.8793 C.2     1  UNL1        0.2521
      2 O         142.2183  139.8342  163.9890 O.2     1  UNL1       -0.2698
      3 N         141.3921  139.4864  161.5505 N.am    1  UNL1       -0.2725
      4 C         140.4406  139.8231  160.4408 C.3     1  UNL1        0.1152
      5 C         140.5658  139.1386  159.1119 C.3     1  UNL1        0.1137
      6 N         141.6426  138.1174  158.8928 N.pl3   1  UNL1       -0.2885
      7 C         142.5940  137.7808  160.0024 C.3     1  UNL1        0.1137
      8 C         142.4688  138.4653  161.3313 C.3     1  UNL1        0.1152
      9 C         138.9268  140.8088  163.8105 C.ar    1  UNL1        0.1432
     10 C         137.8502  141.8299  164.0297 C.ar    1  UNL1        0.0384
     11 C         138.0368  143.2343  163.5367 C.ar    1  UNL1        0.0215
     12 C         139.3001  143.6174  162.8245 C.ar    1  UNL1        0.1061
     13 C         140.3768  142.5963  162.6054 C.ar    1  UNL1        0.0259
     14 C         140.1901  141.1920  163.0984 C.ar    1  UNL1        0.0887
     15 S         139.4868  145.0218  162.3315 S.O2    1  UNL1        0.0105
     16 C         139.6734  146.4261  161.8385 C.3     1  UNL1        0.1816
     17 O         140.9747  144.8331  162.3573 O.2     1  UNL1       -0.1686
     18 O         137.9989  145.2105  162.3058 O.2     1  UNL1       -0.1686
     19 O         138.7402  139.4045  164.3036 O.3     1  UNL1       -0.4702
     20 C         139.6181  140.0029  166.6744 C.3     1  UNL1        0.0566
     21 C         138.8218  139.1079  165.7716 C.3     1  UNL1        0.2599
     22 C         138.1071  137.9164  166.3370 C.3     1  UNL1        0.4340
     23 F         137.3926  136.7249  166.9023 F       1  UNL1       -0.1664
     24 F         137.3491  138.8136  167.2699 F       1  UNL1       -0.1664
     25 F         138.8652  137.0192  165.4042 F       1  UNL1       -0.1664
     26 C         141.7678  137.4330  157.5639 C.ar    1  UNL1        0.1512
     27 C         140.5715  137.3115  156.6672 C.ar    1  UNL1        0.1330
     28 N         140.6967  136.6270  155.3383 N.ar    1  UNL1       -0.2354
     29 C         142.0183  136.0640  154.9063 C.ar    1  UNL1        0.1719
     30 C         143.2145  136.1855  155.8030 C.ar    1  UNL1        0.1234
     31 N         143.0893  136.8700  157.1318 N.ar    1  UNL1       -0.2260
     32 C         142.1435  135.3795  153.5774 C.3     1  UNL1        0.4363
     33 F         142.2687  134.6951  152.2486 F       1  UNL1       -0.1644
     34 F         142.1266  134.0455  154.2630 F       1  UNL1       -0.1644
     35 F         142.1604  136.7136  152.8918 F       1  UNL1       -0.1644
@<TRIPOS>BOND
     1    20    21    1
     2    21    19    1
     3    19     9    1
     4     9    10   ar
     5    10    11   ar
     6    11    12   ar
     7    12    15    1
     8    15    16    1
     9    15    17    2
    10    15    18    2
    11    12    13   ar
    12    13    14   ar
    13    14     1    1
    14     1     2    2
    15     1     3   am
    16     3     4    1
    17     4     5    1
    18     5     6    1
    19     6    26    1
    20    26    27   ar
    21    27    28   ar
    22    28    29   ar
    23    29    32    1
    24    32    33    1
    25    32    34    1
    26    32    35    1
    27    29    30   ar
    28    30    31   ar
    29     6     7    1
    30     7     8    1
    31    21    22    1
    32    22    23    1
    33    22    24    1
    34    22    25    1
    35    14     9   ar
    36     8     3    1
    37    31    26   ar
@<TRIPOS>MOLECULE
*****
 35 37 0 0 0
SMALL
GASTEIGER

@<TRIPOS>ATOM
      1 C         143.2056  139.3803  166.1409 C.2     1  UNL1        0.2521
      2 O         143.9686  138.1853  166.6306 O.2     1  UNL1       -0.2698
      3 N         143.3400  139.8227  164.7139 N.am    1  UNL1       -0.2725
      4 C         142.5770  141.0177  164.2242 C.3     1  UNL1        0.1152
      5 C         142.7114  141.4601  162.7972 C.3     1  UNL1        0.1137
      6 N         143.6088  140.7075  161.8600 N.pl3   1  UNL1       -0.2885
      7 C         144.3718  139.5125  162.3498 C.3     1  UNL1        0.1137
      8 C         144.2374  139.0701  163.7767 C.3     1  UNL1        0.1152
      9 C         140.8216  139.9481  167.0034 C.ar    1  UNL1        0.1432
     10 C         139.9243  140.7008  167.9406 C.ar    1  UNL1        0.0384
     11 C         140.5137  141.6381  168.9525 C.ar    1  UNL1        0.0215
     12 C         142.0003  141.8229  169.0272 C.ar    1  UNL1        0.1061
     13 C         142.8976  141.0703  168.0900 C.ar    1  UNL1        0.0259
     14 C         142.3083  140.1329  167.0781 C.ar    1  UNL1        0.0887
     15 S         142.5897  142.7603  170.0391 S.O2    1  UNL1        0.0105
     16 C         143.1791  143.6977  171.0510 C.3     1  UNL1        0.1816
     17 O         143.8941  142.7392  169.2988 O.2     1  UNL1       -0.1686
     18 O         141.2852  142.7814  170.7793 O.2     1  UNL1       -0.1686
     19 O         140.2322  139.0107  165.9915 O.3     1  UNL1       -0.4702
     20 C         138.0499  139.9774  164.9653 C.3     1  UNL1        0.0566
     21 C         138.7453  138.9470  165.8048 C.3     1  UNL1        0.2599
     22 C         137.9536  137.8528  166.4577 C.3     1  UNL1        0.4340
     23 F         137.1620  136.7587  167.1106 F       1  UNL1       -0.1664
     24 F         138.6351  136.8398  165.5864 F       1  UNL1       -0.1664
     25 F         137.2721  138.8659  167.3290 F       1  UNL1       -0.1664
     26 C         143.7432  141.1499  160.4330 C.ar    1  UNL1        0.1512
     27 C         143.7824  142.6124  160.1018 C.ar    1  UNL1        0.1330
     28 N         143.9168  143.0548  158.6748 N.ar    1  UNL1       -0.2354
     29 C         144.0120  142.0347  157.5791 C.ar    1  UNL1        0.1719
     30 C         143.9728  140.5723  157.9104 C.ar    1  UNL1        0.1234
     31 N         143.8384  140.1299  159.3374 N.ar    1  UNL1       -0.2260
     32 C         144.1464  142.4771  156.1522 C.3     1  UNL1        0.4363
     33 F         144.2808  142.9195  154.7252 F       1  UNL1       -0.1644
     34 F         145.6288  142.6156  156.3347 F       1  UNL1       -0.1644
     35 F         142.6640  142.3386  155.9696 F       1  UNL1       -0.1644
@<TRIPOS>BOND
     1    20    21    1
     2    21    19    1
     3    19     9    1
     4     9    10   ar
     5    10    11   ar
     6    11    12   ar
     7    12    15    1
     8    15    16    1
     9    15    17    2
    10    15    18    2
    11    12    13   ar
    12    13    14   ar
    13    14     1    1
    14     1     2    2
    15     1     3   am
    16     3     4    1
    17     4     5    1
    18     5     6    1
    19     6    26    1
    20    26    27   ar
    21    27    28   ar
    22    28    29   ar
    23    29    32    1
    24    32    33    1
    25    32    34    1
    26    32    35    1
    27    29    30   ar
    28    30    31   ar
    29     6     7    1
    30     7     8    1
    31    21    22    1
    32    22    23    1
    33    22    24    1
    34    22    25    1
    35    14     9   ar
    36     8     3    1
    37    31    26   ar
@<TRIPOS>MOLECULE
*****
 35 37 0 0 0
SMALL
GASTEIGER

@<TRIPOS>ATOM
      1 C         142.4181  143.2478  162.1220 C.2     1  UNL1        0.2521
      2 O         143.6470  144.0347  161.7750 O.2     1  UNL1       -0.2698
      3 N         141.3863  142.9656  161.0704 N.am    1  UNL1       -0.2725
      4 C         140.1574  142.1786  161.4175 C.3     1  UNL1        0.1152
      5 C         139.1257  141.8964  160.3659 C.3     1  UNL1        0.1137
      6 N         139.3228  142.4012  158.9672 N.pl3   1  UNL1       -0.2885
      7 C         140.5517  143.1882  158.6201 C.3     1  UNL1        0.1137
      8 C         141.5835  143.4703  159.6718 C.3     1  UNL1        0.1152
      9 C         141.4877  143.5823  164.5246 C.ar    1  UNL1        0.1432
     10 C         141.2905  143.0774  165.9233 C.ar    1  UNL1        0.0384
     11 C         141.8266  141.7333  166.3180 C.ar    1  UNL1        0.0215
     12 C         142.5598  140.8939  165.3141 C.ar    1  UNL1        0.1061
     13 C         142.7570  141.3988  163.9155 C.ar    1  UNL1        0.0259
     14 C         142.2209  142.7429  163.5207 C.ar    1  UNL1        0.0887
     15 S         143.0959  139.5497  165.7089 S.O2    1  UNL1        0.0105
     16 C         143.6319  138.2056  166.1036 C.3     1  UNL1        0.1816
     17 O         144.2647  139.7459  164.7894 O.2     1  UNL1       -0.1686
     18 O         141.9271  139.3536  166.6283 O.2     1  UNL1       -0.1686
     19 O         140.9516  144.9264  164.1299 O.3     1  UNL1       -0.4702
     20 C         139.3745  145.6553  162.1982 C.3     1  UNL1        0.0566
     21 C         139.5717  145.0439  163.5536 C.3     1  UNL1        0.2599
     22 C         138.3890  144.5498  164.3328 C.3     1  UNL1        0.4340
     23 F         137.2063  144.0558  165.1120 F       1  UNL1       -0.1664
     24 F         137.9244  143.7742  163.1360 F       1  UNL1       -0.1664
     25 F         138.8535  145.3254  165.5297 F       1  UNL1       -0.1664
     26 C         138.2911  142.1190  157.9156 C.ar    1  UNL1        0.1512
     27 C         137.5851  140.7957  157.8935 C.ar    1  UNL1        0.1330
     28 N         136.5534  140.5135  156.8419 N.ar    1  UNL1       -0.2354
     29 C         136.2276  141.5546  155.8124 C.ar    1  UNL1        0.1719
     30 C         136.9336  142.8779  155.8345 C.ar    1  UNL1        0.1234
     31 N         137.9653  143.1601  156.8861 N.ar    1  UNL1       -0.2260
     32 C         135.1959  141.2725  154.7608 C.3     1  UNL1        0.4363
     33 F         134.1641  140.9903  153.7092 F       1  UNL1       -0.1644
     34 F         136.2668  141.2706  153.7105 F       1  UNL1       -0.1644
     35 F         134.1249  141.2743  155.8110 F       1  UNL1       -0.1644
@<TRIPOS>BOND
     1    20    21    1
     2    21    19    1
     3    19     9    1
     4     9    10   ar
     5    10    11   ar
     6    11    12   ar
     7    12    15    1
     8    15    16    1
     9    15    17    2
    10    15    18    2
    11    12    13   ar
    12    13    14   ar
    13    14     1    1
    14     1     2    2
    15     1     3   am
    16     3     4    1
    17     4     5    1
    18     5     6    1
    19     6    26    1
    20    26    27   ar
    21    27    28   ar
    22    28    29   ar
    23    29    32    1
    24    32    33    1
    25    32    34    1
    26    32    35    1
    27    29    30   ar
    28    30    31   ar
    29     6     7    1
    30     7     8    1
    31    21    22    1
    32    22    23    1
    33    22    24    1
    34    22    25    1
    35    14     9   ar
    36     8     3    1
    37    31    26   ar
@<TRIPOS>MOLECULE
*****
 35 37 0 0 0
SMALL
GASTEIGER

@<TRIPOS>ATOM
      1 C         139.4873  138.6485  165.2366 C.2     1  UNL1        0.2521
      2 O         138.8050  137.3711  165.6274 O.2     1  UNL1       -0.2698
      3 N         139.2021  139.2735  163.9032 N.am    1  UNL1       -0.2725
      4 C         139.8845  140.5509  163.5123 C.3     1  UNL1        0.1152
      5 C         139.5993  141.1760  162.1789 C.3     1  UNL1        0.1137
      6 N         138.6317  140.5236  161.2363 N.pl3   1  UNL1       -0.2885
      7 C         137.9494  139.2463  161.6272 C.3     1  UNL1        0.1137
      8 C         138.2346  138.6212  162.9606 C.3     1  UNL1        0.1152
      9 C         141.9204  138.9977  166.0781 C.ar    1  UNL1        0.1432
     10 C         142.8878  139.6501  167.0206 C.ar    1  UNL1        0.0384
     11 C         142.3898  140.6055  168.0642 C.ar    1  UNL1        0.0215
     12 C         140.9242  140.9086  168.1652 C.ar    1  UNL1        0.1061
     13 C         139.9567  140.2563  167.2227 C.ar    1  UNL1        0.0259
     14 C         140.4548  139.3008  166.1791 C.ar    1  UNL1        0.0887
     15 S         140.4261  141.8640  169.2088 S.O2    1  UNL1        0.0105
     16 C         139.9281  142.8195  170.2524 C.3     1  UNL1        0.1816
     17 O         140.4793  140.7711  170.2348 O.2     1  UNL1       -0.1686
     18 O         140.3730  142.9570  168.1828 O.2     1  UNL1       -0.1686
     19 O         142.4185  138.0423  165.0345 O.3     1  UNL1       -0.4702
     20 C         143.9986  139.6741  163.7735 C.3     1  UNL1        0.0566
     21 C         142.9885  138.5655  163.7495 C.3     1  UNL1        0.2599
     22 C         142.5484  137.9801  162.4404 C.3     1  UNL1        0.4340
     23 F         142.1083  137.3948  161.1314 F       1  UNL1       -0.1664
     24 F         141.5405  137.1324  163.1583 F       1  UNL1       -0.1664
     25 F         143.5563  138.8278  161.7225 F       1  UNL1       -0.1664
     26 C         138.3465  141.1487  159.9029 C.ar    1  UNL1        0.1512
     27 C         138.7030  142.5847  159.6561 C.ar    1  UNL1        0.1330
     28 N         138.4178  143.2097  158.3227 N.ar    1  UNL1       -0.2354
     29 C         137.7762  142.3988  157.2361 C.ar    1  UNL1        0.1719
     30 C         137.4197  140.9628  157.4829 C.ar    1  UNL1        0.1234
     31 N         137.7049  140.3378  158.8164 N.ar    1  UNL1       -0.2260
     32 C         137.4910  143.0238  155.9027 C.3     1  UNL1        0.4363
     33 F         137.2058  143.6489  154.5693 F       1  UNL1       -0.1644
     34 F         138.7447  143.8394  156.0169 F       1  UNL1       -0.1644
     35 F         136.2372  142.2083  155.7885 F       1  UNL1       -0.1644
@<TRIPOS>BOND
     1    20    21    1
     2    21    19    1
     3    19     9    1
     4     9    10   ar
     5    10    11   ar
     6    11    12   ar
     7    12    15    1
     8    15    16    1
     9    15    17    2
    10    15    18    2
    11    12    13   ar
    12    13    14   ar
    13    14     1    1
    14     1     2    2
    15     1     3   am
    16     3     4    1
    17     4     5    1
    18     5     6    1
    19     6    26    1
    20    26    27   ar
    21    27    28   ar
    22    28    29   ar
    23    29    32    1
    24    32    33    1
    25    32    34    1
    26    32    35    1
    27    29    30   ar
    28    30    31   ar
    29     6     7    1
    30     7     8    1
    31    21    22    1
    32    22    23    1
    33    22    24    1
    34    22    25    1
    35    14     9   ar
    36     8     3    1
    37    31    26   ar
@<TRIPOS>MOLECULE
*****
 35 37 0 0 0
SMALL
GASTEIGER

@<TRIPOS>ATOM
      1 C         138.7221  141.6673  162.2653 C.2     1  UNL1        0.2521
      2 O         137.3409  142.2412  162.1527 O.2     1  UNL1       -0.2698
      3 N         139.2453  140.7562  161.1947 N.am    1  UNL1       -0.2725
      4 C         140.6266  140.1822  161.3074 C.3     1  UNL1        0.1152
      5 C         141.1498  139.2711  160.2368 C.3     1  UNL1        0.1137
      6 N         140.2917  138.9339  159.0536 N.pl3   1  UNL1       -0.2885
      7 C         138.9104  139.5078  158.9410 C.3     1  UNL1        0.1137
      8 C         138.3872  140.4189  160.0116 C.3     1  UNL1        0.1152
      9 C         139.2870  141.3930  164.7864 C.ar    1  UNL1        0.1432
     10 C         140.1451  141.7302  165.9695 C.ar    1  UNL1        0.0384
     11 C         141.2965  142.6790  165.8148 C.ar    1  UNL1        0.0215
     12 C         141.5898  143.2906  164.4769 C.ar    1  UNL1        0.1061
     13 C         140.7317  142.9533  163.2938 C.ar    1  UNL1        0.0259
     14 C         139.5803  142.0045  163.4485 C.ar    1  UNL1        0.0887
     15 S         142.7413  144.2394  164.3222 S.O2    1  UNL1        0.0105
     16 C         143.8927  145.1882  164.1675 C.3     1  UNL1        0.1816
     17 O         143.6250  143.2897  165.0752 O.2     1  UNL1       -0.1686
     18 O         141.8575  145.1891  163.5692 O.2     1  UNL1       -0.1686
     19 O         138.1355  140.4441  164.9411 O.3     1  UNL1       -0.4702
     20 C         137.9605  138.4118  166.5501 C.3     1  UNL1        0.0566
     21 C         138.3914  138.9962  165.2376 C.3     1  UNL1        0.2599
     22 C         139.0784  138.1326  164.2215 C.3     1  UNL1        0.4340
     23 F         139.7652  137.2690  163.2055 F       1  UNL1       -0.1664
     24 F         140.0831  137.7164  165.2545 F       1  UNL1       -0.1664
     25 F         138.0736  138.5488  163.1885 F       1  UNL1       -0.1664
     26 C         140.8149  138.0227  157.9831 C.ar    1  UNL1        0.1512
     27 C         139.9138  137.5804  156.8684 C.ar    1  UNL1        0.1330
     28 N         140.4370  136.6692  155.7978 N.ar    1  UNL1       -0.2354
     29 C         141.8613  136.2005  155.8419 C.ar    1  UNL1        0.1719
     30 C         142.7622  136.6428  156.9566 C.ar    1  UNL1        0.1234
     31 N         142.2390  137.5540  158.0272 N.ar    1  UNL1       -0.2260
     32 C         142.3844  135.2893  154.7714 C.3     1  UNL1        0.4363
     33 F         142.9076  134.3782  153.7008 F       1  UNL1       -0.1644
     34 F         142.1032  136.3407  153.7391 F       1  UNL1       -0.1644
     35 F         142.6656  134.2379  155.8036 F       1  UNL1       -0.1644
@<TRIPOS>BOND
     1    20    21    1
     2    21    19    1
     3    19     9    1
     4     9    10   ar
     5    10    11   ar
     6    11    12   ar
     7    12    15    1
     8    15    16    1
     9    15    17    2
    10    15    18    2
    11    12    13   ar
    12    13    14   ar
    13    14     1    1
    14     1     2    2
    15     1     3   am
    16     3     4    1
    17     4     5    1
    18     5     6    1
    19     6    26    1
    20    26    27   ar
    21    27    28   ar
    22    28    29   ar
    23    29    32    1
    24    32    33    1
    25    32    34    1
    26    32    35    1
    27    29    30   ar
    28    30    31   ar
    29     6     7    1
    30     7     8    1
    31    21    22    1
    32    22    23    1
    33    22    24    1
    34    22    25    1
    35    14     9   ar
    36     8     3    1
    37    31    26   ar
