@<TRIPOS>MOLECULE
*****
 34 37 0 0 0
SMALL
GASTEIGER

@<TRIPOS>ATOM
      1 C         142.2775  143.4254  162.9340 C.ar    1  UNL1        0.1535
      2 C         141.8162  142.0101  162.7493 C.ar    1  UNL1        0.0369
      3 C         142.1942  140.9612  163.7528 C.ar    1  UNL1        0.0930
      4 CL        141.7329  139.5458  163.5682 Cl      1  UNL1       -0.0790
      5 C         143.0334  141.3276  164.9408 C.ar    1  UNL1        0.1514
      6 C         143.4946  142.7429  165.1255 C.ar    1  UNL1        0.0688
      7 C         143.1167  143.7918  164.1220 C.ar    1  UNL1        0.1620
      8 F         143.5780  145.2071  164.3066 F       1  UNL1       -0.2026
      9 O         143.1190  144.1412  161.1230 O.2     1  UNL1       -0.1498
     10 S         141.8996  144.4744  161.9305 S.O2    1  UNL1        0.0769
     11 O         140.6802  144.8075  162.7379 O.2     1  UNL1       -0.1498
     12 N         141.5217  145.5233  160.9271 N.pl3   1  UNL1       -0.1984
     13 H         141.4332  146.4630  161.2069 H       1  UNL1        0.1753
     14 C         141.2787  145.1404  159.4972 C.ar    1  UNL1        0.1542
     15 C         140.2463  144.1684  159.0080 C.ar    1  UNL1        0.0725
     16 S         140.3550  144.0896  157.5140 S.2     1  UNL1       -0.0625
     17 C         141.4546  145.0130  157.0798 C.ar    1  UNL1        0.1360
     18 N         142.0255  145.6625  158.3056 N.ar    1  UNL1       -0.2203
     19 O         143.4113  140.2786  165.9443 O.3     1  UNL1       -0.4727
     20 C         142.5147  140.0027  167.1147 C.3     1  UNL1        0.2254
     21 C         142.1809  141.1019  168.0794 C.3     1  UNL1        0.1208
     22 N         143.1093  141.4092  169.2167 N.3     1  UNL1       -0.2918
     23 C         142.7755  142.5083  170.1812 C.3     1  UNL1        0.0736
     24 C         141.5133  143.3002  170.0085 C.3     1  UNL1        0.0428
     25 C         140.5849  142.9928  168.8712 C.2     1  UNL1       -0.0275
     26 C         140.9187  141.8937  167.9066 C.2     1  UNL1       -0.0086
     27 H         144.0125  141.6434  168.8045 H       1  UNL1        0.1236
     28 C         139.9902  141.5863  166.7692 C.ar    1  UNL1       -0.0028
     29 C         139.6860  142.6383  165.7442 C.ar    1  UNL1        0.0020
     30 C         138.7576  142.3310  164.6068 C.ar    1  UNL1        0.0296
     31 C         138.1334  140.9716  164.4945 C.ar    1  UNL1        0.1401
     32 F         137.2050  140.6643  163.3572 F       1  UNL1       -0.2042
     33 C         138.4376  139.9196  165.5196 C.ar    1  UNL1        0.0296
     34 C         139.3661  140.2270  166.6569 C.ar    1  UNL1        0.0020
@<TRIPOS>BOND
     1     9    10    2
     2    10    11    2
     3    10    12    1
     4    12    14    1
     5    14    15   ar
     6    15    16   ar
     7    16    17   ar
     8    17    18   ar
     9    10     1    1
    10     1     2   ar
    11     2     3   ar
    12     3     4    1
    13     3     5   ar
    14     5    19    1
    15    19    20    1
    16    20    21    1
    17    21    22    1
    18    22    23    1
    19    23    24    1
    20    24    25    1
    21    25    26    2
    22    26    28    1
    23    28    29   ar
    24    29    30   ar
    25    30    31   ar
    26    31    32    1
    27    31    33   ar
    28    33    34   ar
    29     5     6   ar
    30     6     7   ar
    31     7     8    1
    32    18    14   ar
    33     7     1   ar
    34    26    21    1
    35    34    28   ar
    36    12    13    1
    37    22    27    1
@<TRIPOS>MOLECULE
*****
 34 37 0 0 0
SMALL
GASTEIGER

@<TRIPOS>ATOM
      1 C         141.9871  143.7924  162.4041 C.ar    1  UNL1        0.1535
      2 C         143.0087  144.2536  163.4008 C.ar    1  UNL1        0.0369
      3 C         143.5177  143.3059  164.4462 C.ar    1  UNL1        0.0930
      4 CL        144.5393  143.7671  165.4431 Cl      1  UNL1       -0.0790
      5 C         143.0050  141.8971  164.4948 C.ar    1  UNL1        0.1514
      6 C         141.9834  141.4359  163.4980 C.ar    1  UNL1        0.0688
      7 C         141.4745  142.3836  162.4527 C.ar    1  UNL1        0.1620
      8 F         140.4528  141.9224  161.4558 F       1  UNL1       -0.2026
      9 O         140.3311  145.1093  162.2519 O.2     1  UNL1       -0.1498
     10 S         141.4781  144.7401  161.3586 S.O2    1  UNL1        0.0769
     11 O         142.6252  144.3709  160.4654 O.2     1  UNL1       -0.1498
     12 N         140.9691  145.6877  160.3133 N.pl3   1  UNL1       -0.1984
     13 H         140.9802  146.6578  160.4810 H       1  UNL1        0.1753
     14 C         140.4432  145.1574  159.0124 C.ar    1  UNL1        0.1542
     15 C         140.5089  145.8536  157.6853 C.ar    1  UNL1        0.0725
     16 S         139.8656  144.9642  156.6630 S.2     1  UNL1       -0.0625
     17 C         139.4023  143.7184  157.3582 C.ar    1  UNL1        0.1360
     18 N         139.7593  143.8378  158.8103 N.ar    1  UNL1       -0.2203
     19 O         143.5140  140.9494  165.5402 O.3     1  UNL1       -0.4727
     20 C         142.6470  139.8218  166.0163 C.3     1  UNL1        0.2254
     21 C         142.1611  139.7968  167.4353 C.3     1  UNL1        0.1208
     22 N         142.9246  139.0328  168.4761 N.3     1  UNL1       -0.2918
     23 C         142.4387  139.0079  169.8950 C.3     1  UNL1        0.0736
     24 C         141.1893  139.7468  170.2730 C.3     1  UNL1        0.0428
     25 C         140.4258  140.5108  169.2322 C.2     1  UNL1       -0.0275
     26 C         140.9117  140.5358  167.8133 C.2     1  UNL1       -0.0086
     27 H         143.8673  139.4219  168.4946 H       1  UNL1        0.1236
     28 C         140.1482  141.2997  166.7724 C.ar    1  UNL1       -0.0028
     29 C         140.3653  142.7756  166.6156 C.ar    1  UNL1        0.0020
     30 C         139.6019  143.5396  165.5747 C.ar    1  UNL1        0.0296
     31 C         138.6213  142.8277  164.6905 C.ar    1  UNL1        0.1401
     32 F         137.8579  143.5917  163.6497 F       1  UNL1       -0.2042
     33 C         138.4042  141.3518  164.8473 C.ar    1  UNL1        0.0296
     34 C         139.1677  140.5878  165.8883 C.ar    1  UNL1        0.0020
@<TRIPOS>BOND
     1     9    10    2
     2    10    11    2
     3    10    12    1
     4    12    14    1
     5    14    15   ar
     6    15    16   ar
     7    16    17   ar
     8    17    18   ar
     9    10     1    1
    10     1     2   ar
    11     2     3   ar
    12     3     4    1
    13     3     5   ar
    14     5    19    1
    15    19    20    1
    16    20    21    1
    17    21    22    1
    18    22    23    1
    19    23    24    1
    20    24    25    1
    21    25    26    2
    22    26    28    1
    23    28    29   ar
    24    29    30   ar
    25    30    31   ar
    26    31    32    1
    27    31    33   ar
    28    33    34   ar
    29     5     6   ar
    30     6     7   ar
    31     7     8    1
    32    18    14   ar
    33     7     1   ar
    34    26    21    1
    35    34    28   ar
    36    12    13    1
    37    22    27    1
@<TRIPOS>MOLECULE
*****
 34 37 0 0 0
SMALL
GASTEIGER

@<TRIPOS>ATOM
      1 C         139.9819  143.3989  162.3145 C.ar    1  UNL1        0.1535
      2 C         139.5259  142.1208  161.6756 C.ar    1  UNL1        0.0369
      3 C         138.8335  141.0759  162.4994 C.ar    1  UNL1        0.0930
      4 CL        138.3775  139.7976  161.8605 Cl      1  UNL1       -0.0790
      5 C         138.5973  141.3091  163.9622 C.ar    1  UNL1        0.1514
      6 C         139.0533  142.5873  164.6011 C.ar    1  UNL1        0.0688
      7 C         139.7456  143.6322  163.7773 C.ar    1  UNL1        0.1620
      8 F         140.2017  144.9104  164.4162 F       1  UNL1       -0.2026
      9 O         141.9580  143.6752  161.5945 O.2     1  UNL1       -0.1498
     10 S         140.6742  144.4439  161.4906 S.O2    1  UNL1        0.0769
     11 O         139.3904  145.2127  161.3867 O.2     1  UNL1       -0.1498
     12 N         141.3666  145.4889  160.6668 N.pl3   1  UNL1       -0.1984
     13 H         141.7870  146.2632  161.1060 H       1  UNL1        0.1753
     14 C         141.4185  145.3540  159.1737 C.ar    1  UNL1        0.1542
     15 C         140.3531  145.7887  158.2116 C.ar    1  UNL1        0.0725
     16 S         140.8211  145.4641  156.8239 S.2     1  UNL1       -0.0625
     17 C         142.1759  144.8286  156.9285 C.ar    1  UNL1        0.1360
     18 N         142.5451  144.7606  158.3808 N.ar    1  UNL1       -0.2203
     19 O         137.9049  140.2641  164.7861 O.3     1  UNL1       -0.4727
     20 C         138.6236  139.6140  165.9310 C.3     1  UNL1        0.2254
     21 C         140.0676  139.2328  165.7907 C.3     1  UNL1        0.1208
     22 N         140.4961  138.3102  164.6884 N.3     1  UNL1       -0.2918
     23 C         141.9400  137.9290  164.5482 C.3     1  UNL1        0.0736
     24 C         142.9555  138.4706  165.5103 C.3     1  UNL1        0.0428
     25 C         142.5270  139.3932  166.6126 C.2     1  UNL1       -0.0275
     26 C         141.0831  139.7743  166.7528 C.2     1  UNL1       -0.0086
     27 H         140.2217  138.7522  163.8111 H       1  UNL1        0.1236
     28 C         140.6545  140.6970  167.8551 C.ar    1  UNL1       -0.0028
     29 C         139.9615  140.1471  169.0665 C.ar    1  UNL1        0.0020
     30 C         139.5329  141.0697  170.1688 C.ar    1  UNL1        0.0296
     31 C         139.7974  142.5423  170.0598 C.ar    1  UNL1        0.1401
     32 F         139.3688  143.4649  171.1621 F       1  UNL1       -0.2042
     33 C         140.4904  143.0921  168.8484 C.ar    1  UNL1        0.0296
     34 C         140.9190  142.1694  167.7461 C.ar    1  UNL1        0.0020
@<TRIPOS>BOND
     1     9    10    2
     2    10    11    2
     3    10    12    1
     4    12    14    1
     5    14    15   ar
     6    15    16   ar
     7    16    17   ar
     8    17    18   ar
     9    10     1    1
    10     1     2   ar
    11     2     3   ar
    12     3     4    1
    13     3     5   ar
    14     5    19    1
    15    19    20    1
    16    20    21    1
    17    21    22    1
    18    22    23    1
    19    23    24    1
    20    24    25    1
    21    25    26    2
    22    26    28    1
    23    28    29   ar
    24    29    30   ar
    25    30    31   ar
    26    31    32    1
    27    31    33   ar
    28    33    34   ar
    29     5     6   ar
    30     6     7   ar
    31     7     8    1
    32    18    14   ar
    33     7     1   ar
    34    26    21    1
    35    34    28   ar
    36    12    13    1
    37    22    27    1
@<TRIPOS>MOLECULE
*****
 34 37 0 0 0
SMALL
GASTEIGER

@<TRIPOS>ATOM
      1 C         141.9625  138.4778  161.9110 C.ar    1  UNL1        0.1535
      2 C         140.5189  138.3579  161.5219 C.ar    1  UNL1        0.0369
      3 C         139.4818  138.0706  162.5668 C.ar    1  UNL1        0.0930
      4 CL        138.0381  137.9507  162.1777 Cl      1  UNL1       -0.0790
      5 C         139.8884  137.9033  164.0009 C.ar    1  UNL1        0.1514
      6 C         141.3321  138.0232  164.3901 C.ar    1  UNL1        0.0688
      7 C         142.3691  138.3105  163.3451 C.ar    1  UNL1        0.1620
      8 F         143.8128  138.4304  163.7343 F       1  UNL1       -0.2026
      9 O         142.9527  137.3321  160.4255 O.2     1  UNL1       -0.1498
     10 S         142.9996  138.7651  160.8660 S.O2    1  UNL1        0.0769
     11 O         143.0466  140.1982  161.3065 O.2     1  UNL1       -0.1498
     12 N         144.0367  139.0523  159.8211 N.pl3   1  UNL1       -0.1984
     13 H         144.9805  138.8285  159.9897 H       1  UNL1        0.1753
     14 C         143.6358  139.6806  158.5193 C.ar    1  UNL1        0.1542
     15 C         142.2386  139.7845  157.9838 C.ar    1  UNL1        0.0725
     16 S         142.3011  140.4834  156.6580 S.2     1  UNL1       -0.0625
     17 C         143.7370  140.8115  156.3741 C.ar    1  UNL1        0.1360
     18 N         144.5620  140.3153  157.5246 N.ar    1  UNL1       -0.2203
     19 O         138.8513  137.6160  165.0459 O.3     1  UNL1       -0.4727
     20 C         138.3659  138.7157  165.9431 C.3     1  UNL1        0.2254
     21 C         138.5097  140.1476  165.5198 C.3     1  UNL1        0.1208
     22 N         137.6421  140.6973  164.4267 N.3     1  UNL1       -0.2918
     23 C         137.7860  142.1291  164.0034 C.3     1  UNL1        0.0736
     24 C         138.7975  143.0112  164.6733 C.3     1  UNL1        0.0428
     25 C         139.6652  142.4614  165.7664 C.2     1  UNL1       -0.0275
     26 C         139.5213  141.0296  166.1896 C.2     1  UNL1       -0.0086
     27 H         136.6754  140.5752  164.7285 H       1  UNL1        0.1236
     28 C         140.3890  140.4798  167.2827 C.ar    1  UNL1       -0.0028
     29 C         141.7795  140.0108  166.9722 C.ar    1  UNL1        0.0020
     30 C         142.6472  139.4610  168.0653 C.ar    1  UNL1        0.0296
     31 C         142.1244  139.3803  169.4689 C.ar    1  UNL1        0.1401
     32 F         142.9921  138.8305  170.5620 F       1  UNL1       -0.2042
     33 C         140.7339  139.8493  169.7795 C.ar    1  UNL1        0.0296
     34 C         139.8662  140.3991  168.6863 C.ar    1  UNL1        0.0020
@<TRIPOS>BOND
     1     9    10    2
     2    10    11    2
     3    10    12    1
     4    12    14    1
     5    14    15   ar
     6    15    16   ar
     7    16    17   ar
     8    17    18   ar
     9    10     1    1
    10     1     2   ar
    11     2     3   ar
    12     3     4    1
    13     3     5   ar
    14     5    19    1
    15    19    20    1
    16    20    21    1
    17    21    22    1
    18    22    23    1
    19    23    24    1
    20    24    25    1
    21    25    26    2
    22    26    28    1
    23    28    29   ar
    24    29    30   ar
    25    30    31   ar
    26    31    32    1
    27    31    33   ar
    28    33    34   ar
    29     5     6   ar
    30     6     7   ar
    31     7     8    1
    32    18    14   ar
    33     7     1   ar
    34    26    21    1
    35    34    28   ar
    36    12    13    1
    37    22    27    1
@<TRIPOS>MOLECULE
*****
 34 37 0 0 0
SMALL
GASTEIGER

@<TRIPOS>ATOM
      1 C         140.1648  143.4683  163.2206 C.ar    1  UNL1        0.1535
      2 C         140.4988  142.0245  162.9887 C.ar    1  UNL1        0.0369
      3 C         140.0924  140.9896  163.9955 C.ar    1  UNL1        0.0930
      4 CL        140.4265  139.5457  163.7635 Cl      1  UNL1       -0.0790
      5 C         139.3520  141.3984  165.2343 C.ar    1  UNL1        0.1514
      6 C         139.0179  142.8422  165.4662 C.ar    1  UNL1        0.0688
      7 C         139.4243  143.8771  164.4594 C.ar    1  UNL1        0.1620
      8 F         139.0903  145.3210  164.6914 F       1  UNL1       -0.2026
      9 O         139.2043  144.4420  161.5992 O.2     1  UNL1       -0.1498
     10 S         140.5712  144.5033  162.2138 S.O2    1  UNL1        0.0769
     11 O         141.9381  144.5646  162.8285 O.2     1  UNL1       -0.1498
     12 N         140.9775  145.5383  161.2070 N.pl3   1  UNL1       -0.1984
     13 H         141.0060  146.4887  161.4622 H       1  UNL1        0.1753
     14 C         141.3405  145.1252  159.8114 C.ar    1  UNL1        0.1542
     15 C         140.6153  145.5186  158.5587 C.ar    1  UNL1        0.0725
     16 S         141.3190  144.8827  157.3966 S.2     1  UNL1       -0.0625
     17 C         142.4790  144.0961  157.9311 C.ar    1  UNL1        0.1360
     18 N         142.4923  144.2460  159.4236 N.ar    1  UNL1       -0.2203
     19 O         138.9456  140.3634  166.2411 O.3     1  UNL1       -0.4727
     20 C         139.9018  139.9512  167.3207 C.3     1  UNL1        0.2254
     21 C         140.5164  140.9877  168.2141 C.3     1  UNL1        0.1208
     22 N         139.7504  141.5116  169.3925 N.3     1  UNL1       -0.2918
     23 C         140.3650  142.5480  170.2859 C.3     1  UNL1        0.0736
     24 C         141.7456  143.0605  170.0008 C.3     1  UNL1        0.0428
     25 C         142.5116  142.5366  168.8223 C.2     1  UNL1       -0.0275
     26 C         141.8970  141.5002  167.9290 C.2     1  UNL1       -0.0086
     27 H         139.5304  140.7083  169.9814 H       1  UNL1        0.1236
     28 C         142.6630  140.9762  166.7505 C.ar    1  UNL1       -0.0028
     29 C         142.9474  139.5080  166.6335 C.ar    1  UNL1        0.0020
     30 C         143.7133  138.9841  165.4551 C.ar    1  UNL1        0.0296
     31 C         144.1949  139.9282  164.3936 C.ar    1  UNL1        0.1401
     32 F         144.9609  139.4042  163.2152 F       1  UNL1       -0.2042
     33 C         143.9106  141.3964  164.5106 C.ar    1  UNL1        0.0296
     34 C         143.1446  141.9203  165.6891 C.ar    1  UNL1        0.0020
@<TRIPOS>BOND
     1     9    10    2
     2    10    11    2
     3    10    12    1
     4    12    14    1
     5    14    15   ar
     6    15    16   ar
     7    16    17   ar
     8    17    18   ar
     9    10     1    1
    10     1     2   ar
    11     2     3   ar
    12     3     4    1
    13     3     5   ar
    14     5    19    1
    15    19    20    1
    16    20    21    1
    17    21    22    1
    18    22    23    1
    19    23    24    1
    20    24    25    1
    21    25    26    2
    22    26    28    1
    23    28    29   ar
    24    29    30   ar
    25    30    31   ar
    26    31    32    1
    27    31    33   ar
    28    33    34   ar
    29     5     6   ar
    30     6     7   ar
    31     7     8    1
    32    18    14   ar
    33     7     1   ar
    34    26    21    1
    35    34    28   ar
    36    12    13    1
    37    22    27    1
@<TRIPOS>MOLECULE
*****
 34 37 0 0 0
SMALL
GASTEIGER

@<TRIPOS>ATOM
      1 C         142.3656  142.7354  161.9976 C.ar    1  UNL1        0.1535
      2 C         141.8048  141.4480  161.4702 C.ar    1  UNL1        0.0369
      3 C         142.1048  140.1564  162.1712 C.ar    1  UNL1        0.0930
      4 CL        141.5440  138.8689  161.6438 Cl      1  UNL1       -0.0790
      5 C         142.9655  140.1520  163.3997 C.ar    1  UNL1        0.1514
      6 C         143.5263  141.4394  163.9270 C.ar    1  UNL1        0.0688
      7 C         143.2264  142.7311  163.2260 C.ar    1  UNL1        0.1620
      8 F         143.7872  144.0185  163.7534 F       1  UNL1       -0.2026
      9 O         143.1789  143.7597  160.3275 O.2     1  UNL1       -0.1498
     10 S         142.0656  144.0272  161.2965 S.O2    1  UNL1        0.0769
     11 O         140.9524  144.2946  162.2656 O.2     1  UNL1       -0.1498
     12 N         141.7657  145.3189  160.5955 N.pl3   1  UNL1       -0.1984
     13 H         141.8093  146.1690  161.0900 H       1  UNL1        0.1753
     14 C         141.3994  145.3153  159.1408 C.ar    1  UNL1        0.1542
     15 C         140.2162  144.6237  158.5313 C.ar    1  UNL1        0.0725
     16 S         140.2376  144.8837  157.0541 S.2     1  UNL1       -0.0625
     17 C         141.4340  145.7361  156.7508 C.ar    1  UNL1        0.1360
     18 N         142.1521  146.0028  158.0405 N.ar    1  UNL1       -0.2203
     19 O         143.2655  138.8602  164.1007 O.3     1  UNL1       -0.4727
     20 C         142.6819  138.5891  165.4556 C.3     1  UNL1        0.2254
     21 C         141.2020  138.7045  165.6716 C.3     1  UNL1        0.1208
     22 N         140.2548  137.9294  164.8045 N.3     1  UNL1       -0.2918
     23 C         138.7749  138.0448  165.0204 C.3     1  UNL1        0.0736
     24 C         138.2423  138.9354  166.1036 C.3     1  UNL1        0.0428
     25 C         139.1895  139.7105  166.9707 C.2     1  UNL1       -0.0275
     26 C         140.6693  139.5951  166.7547 C.2     1  UNL1       -0.0086
     27 H         140.4927  136.9438  164.9162 H       1  UNL1        0.1236
     28 C         141.6166  140.3703  167.6219 C.ar    1  UNL1       -0.0028
     29 C         142.0464  139.8140  168.9469 C.ar    1  UNL1        0.0020
     30 C         142.9936  140.5891  169.8141 C.ar    1  UNL1        0.0296
     31 C         143.5110  141.9205  169.3561 C.ar    1  UNL1        0.1401
     32 F         144.4583  142.6956  170.2233 F       1  UNL1       -0.2042
     33 C         143.0812  142.4768  168.0311 C.ar    1  UNL1        0.0296
     34 C         142.1340  141.7016  167.1639 C.ar    1  UNL1        0.0020
@<TRIPOS>BOND
     1     9    10    2
     2    10    11    2
     3    10    12    1
     4    12    14    1
     5    14    15   ar
     6    15    16   ar
     7    16    17   ar
     8    17    18   ar
     9    10     1    1
    10     1     2   ar
    11     2     3   ar
    12     3     4    1
    13     3     5   ar
    14     5    19    1
    15    19    20    1
    16    20    21    1
    17    21    22    1
    18    22    23    1
    19    23    24    1
    20    24    25    1
    21    25    26    2
    22    26    28    1
    23    28    29   ar
    24    29    30   ar
    25    30    31   ar
    26    31    32    1
    27    31    33   ar
    28    33    34   ar
    29     5     6   ar
    30     6     7   ar
    31     7     8    1
    32    18    14   ar
    33     7     1   ar
    34    26    21    1
    35    34    28   ar
    36    12    13    1
    37    22    27    1
@<TRIPOS>MOLECULE
*****
 34 37 0 0 0
SMALL
GASTEIGER

@<TRIPOS>ATOM
      1 C         140.6701  144.1405  162.4148 C.ar    1  UNL1        0.1535
      2 C         139.9152  144.8806  163.4789 C.ar    1  UNL1        0.0369
      3 C         139.4717  144.1640  164.7198 C.ar    1  UNL1        0.0930
      4 CL        138.7167  144.9041  165.7839 Cl      1  UNL1       -0.0790
      5 C         139.7832  142.7074  164.8966 C.ar    1  UNL1        0.1514
      6 C         140.5381  141.9673  163.8325 C.ar    1  UNL1        0.0688
      7 C         140.9816  142.6839  162.5916 C.ar    1  UNL1        0.1620
      8 F         141.7366  141.9438  161.5275 F       1  UNL1       -0.2026
      9 O         142.5462  144.6652  161.5751 O.2     1  UNL1       -0.1498
     10 S         141.1137  144.8570  161.1738 S.O2    1  UNL1        0.0769
     11 O         139.6812  145.0488  160.7726 O.2     1  UNL1       -0.1498
     12 N         141.5572  145.5735  159.9330 N.pl3   1  UNL1       -0.1984
     13 H         141.6813  146.5501  159.9462 H       1  UNL1        0.1753
     14 C         141.8116  144.8021  158.6719 C.ar    1  UNL1        0.1542
     15 C         141.4442  143.3688  158.4257 C.ar    1  UNL1        0.0725
     16 S         141.8837  143.0095  157.0373 S.2     1  UNL1       -0.0625
     17 C         142.5227  144.2208  156.4253 C.ar    1  UNL1        0.1360
     18 N         142.4782  145.3288  157.4356 N.ar    1  UNL1       -0.2203
     19 O         139.3397  141.9909  166.1376 O.3     1  UNL1       -0.4727
     20 C         139.8907  140.6328  166.4569 C.3     1  UNL1        0.2254
     21 C         140.6242  140.4050  167.7454 C.3     1  UNL1        0.1208
     22 N         139.8778  139.9429  168.9617 N.3     1  UNL1       -0.2918
     23 C         140.6113  139.7151  170.2501 C.3     1  UNL1        0.0736
     24 C         142.0911  139.9494  170.3222 C.3     1  UNL1        0.0428
     25 C         142.8375  140.4116  169.1060 C.2     1  UNL1       -0.0275
     26 C         142.1040  140.6394  167.8176 C.2     1  UNL1       -0.0086
     27 H         139.4329  139.0586  168.7158 H       1  UNL1        0.1236
     28 C         142.8503  141.1015  166.6012 C.ar    1  UNL1       -0.0028
     29 C         143.2978  140.1057  165.5725 C.ar    1  UNL1        0.0020
     30 C         144.0441  140.5678  164.3562 C.ar    1  UNL1        0.0296
     31 C         144.3429  142.0257  164.1685 C.ar    1  UNL1        0.1401
     32 F         145.0892  142.4878  162.9522 F       1  UNL1       -0.2042
     33 C         143.8955  143.0215  165.1972 C.ar    1  UNL1        0.0296
     34 C         143.1491  142.5594  166.4135 C.ar    1  UNL1        0.0020
@<TRIPOS>BOND
     1     9    10    2
     2    10    11    2
     3    10    12    1
     4    12    14    1
     5    14    15   ar
     6    15    16   ar
     7    16    17   ar
     8    17    18   ar
     9    10     1    1
    10     1     2   ar
    11     2     3   ar
    12     3     4    1
    13     3     5   ar
    14     5    19    1
    15    19    20    1
    16    20    21    1
    17    21    22    1
    18    22    23    1
    19    23    24    1
    20    24    25    1
    21    25    26    2
    22    26    28    1
    23    28    29   ar
    24    29    30   ar
    25    30    31   ar
    26    31    32    1
    27    31    33   ar
    28    33    34   ar
    29     5     6   ar
    30     6     7   ar
    31     7     8    1
    32    18    14   ar
    33     7     1   ar
    34    26    21    1
    35    34    28   ar
    36    12    13    1
    37    22    27    1
@<TRIPOS>MOLECULE
*****
 34 37 0 0 0
SMALL
GASTEIGER

@<TRIPOS>ATOM
      1 C         140.8856  143.0720  161.4869 C.ar    1  UNL1        0.1535
      2 C         141.6243  144.2390  162.0719 C.ar    1  UNL1        0.0369
      3 C         142.4629  144.0555  163.3020 C.ar    1  UNL1        0.0930
      4 CL        143.2016  145.2226  163.8870 Cl      1  UNL1       -0.0790
      5 C         142.5628  142.7050  163.9470 C.ar    1  UNL1        0.1514
      6 C         141.8241  141.5380  163.3620 C.ar    1  UNL1        0.0688
      7 C         140.9855  141.7214  162.1319 C.ar    1  UNL1        0.1620
      8 F         140.2468  140.5544  161.5469 F       1  UNL1       -0.2026
      9 O         138.9434  143.8296  161.0948 O.2     1  UNL1       -0.1498
     10 S         140.0470  143.2554  160.2568 S.O2    1  UNL1        0.0769
     11 O         141.1506  142.6812  159.4187 O.2     1  UNL1       -0.1498
     12 N         139.2084  143.4389  159.0268 N.pl3   1  UNL1       -0.1984
     13 H         138.3442  142.9741  158.9464 H       1  UNL1        0.1753
     14 C         139.6864  144.3305  157.9192 C.ar    1  UNL1        0.1542
     15 C         139.5901  144.0411  156.4505 C.ar    1  UNL1        0.0725
     16 S         140.1888  145.1997  155.7095 S.2     1  UNL1       -0.0625
     17 C         140.6552  146.2052  156.7203 C.ar    1  UNL1        0.1360
     18 N         140.3446  145.6680  158.0860 N.ar    1  UNL1       -0.2203
     19 O         143.4014  142.5216  165.1771 O.3     1  UNL1       -0.4727
     20 C         142.9374  141.6070  166.2717 C.3     1  UNL1        0.2254
     21 C         142.4490  142.1783  167.5698 C.3     1  UNL1        0.1208
     22 N         143.4018  142.3635  168.7134 N.3     1  UNL1       -0.2918
     23 C         142.9134  142.9348  170.0115 C.3     1  UNL1        0.0736
     24 C         141.4722  143.3209  170.1660 C.3     1  UNL1        0.0428
     25 C         140.5194  143.1357  169.0224 C.2     1  UNL1       -0.0275
     26 C         141.0078  142.5644  167.7244 C.2     1  UNL1       -0.0086
     27 H         144.1441  142.9793  168.3814 H       1  UNL1        0.1236
     28 C         140.0549  142.3791  166.5807 C.ar    1  UNL1       -0.0028
     29 C         139.5167  141.0147  166.2664 C.ar    1  UNL1        0.0020
     30 C         138.5639  140.8295  165.1228 C.ar    1  UNL1        0.0296
     31 C         138.1493  142.0086  164.2934 C.ar    1  UNL1        0.1401
     32 F         137.1966  141.8233  163.1498 F       1  UNL1       -0.2042
     33 C         138.6876  143.3730  164.6077 C.ar    1  UNL1        0.0296
     34 C         139.6404  143.5582  165.7514 C.ar    1  UNL1        0.0020
@<TRIPOS>BOND
     1     9    10    2
     2    10    11    2
     3    10    12    1
     4    12    14    1
     5    14    15   ar
     6    15    16   ar
     7    16    17   ar
     8    17    18   ar
     9    10     1    1
    10     1     2   ar
    11     2     3   ar
    12     3     4    1
    13     3     5   ar
    14     5    19    1
    15    19    20    1
    16    20    21    1
    17    21    22    1
    18    22    23    1
    19    23    24    1
    20    24    25    1
    21    25    26    2
    22    26    28    1
    23    28    29   ar
    24    29    30   ar
    25    30    31   ar
    26    31    32    1
    27    31    33   ar
    28    33    34   ar
    29     5     6   ar
    30     6     7   ar
    31     7     8    1
    32    18    14   ar
    33     7     1   ar
    34    26    21    1
    35    34    28   ar
    36    12    13    1
    37    22    27    1
@<TRIPOS>MOLECULE
*****
 34 37 0 0 0
SMALL
GASTEIGER

@<TRIPOS>ATOM
      1 C         139.0861  141.2430  161.3538 C.ar    1  UNL1        0.1535
      2 C         138.0961  142.1591  162.0098 C.ar    1  UNL1        0.0369
      3 C         138.4499  142.8504  163.2930 C.ar    1  UNL1        0.0930
      4 CL        137.4599  143.7667  163.9491 Cl      1  UNL1       -0.0790
      5 C         139.7938  142.6255  163.9203 C.ar    1  UNL1        0.1514
      6 C         140.7838  141.7093  163.2643 C.ar    1  UNL1        0.0688
      7 C         140.4300  141.0181  161.9810 C.ar    1  UNL1        0.1620
      8 F         141.4200  140.1018  161.3250 F       1  UNL1       -0.2026
      9 O         139.1588  141.7653  159.2991 O.2     1  UNL1       -0.1498
     10 S         138.7323  140.5516  160.0704 S.O2    1  UNL1        0.0769
     11 O         138.3059  139.3379  160.8417 O.2     1  UNL1       -0.1498
     12 N         138.3786  139.8603  158.7871 N.pl3   1  UNL1       -0.1984
     13 H         137.4732  139.9526  158.4116 H       1  UNL1        0.1753
     14 C         139.4043  139.0284  158.0758 C.ar    1  UNL1        0.1542
     15 C         140.8391  138.8618  158.4803 C.ar    1  UNL1        0.0725
     16 S         141.4968  137.9474  157.4896 S.2     1  UNL1       -0.0625
     17 C         140.4684  137.5489  156.4728 C.ar    1  UNL1        0.1360
     18 N         139.1751  138.2170  156.8351 N.ar    1  UNL1       -0.2203
     19 O         140.1476  143.3169  165.2037 O.3     1  UNL1       -0.4727
     20 C         141.0620  142.6495  166.1878 C.3     1  UNL1        0.2254
     21 C         140.5238  142.1614  167.5001 C.3     1  UNL1        0.1208
     22 N         140.5640  143.0532  168.7055 N.3     1  UNL1       -0.2918
     23 C         140.0258  142.5651  170.0178 C.3     1  UNL1        0.0736
     24 C         139.4474  141.1852  170.1246 C.3     1  UNL1        0.0428
     25 C         139.4071  140.2935  168.9192 C.2     1  UNL1       -0.0275
     26 C         139.9453  140.7816  167.6069 C.2     1  UNL1       -0.0086
     27 H         140.0395  143.8948  168.4669 H       1  UNL1        0.1236
     28 C         139.9050  139.8898  166.4014 C.ar    1  UNL1       -0.0028
     29 C         141.1391  139.1533  165.9718 C.ar    1  UNL1        0.0020
     30 C         141.0989  138.2616  164.7664 C.ar    1  UNL1        0.0296
     31 C         139.8245  138.1064  163.9904 C.ar    1  UNL1        0.1401
     32 F         139.7843  137.2146  162.7849 F       1  UNL1       -0.2042
     33 C         138.5905  138.8429  164.4200 C.ar    1  UNL1        0.0296
     34 C         138.6307  139.7347  165.6255 C.ar    1  UNL1        0.0020
@<TRIPOS>BOND
     1     9    10    2
     2    10    11    2
     3    10    12    1
     4    12    14    1
     5    14    15   ar
     6    15    16   ar
     7    16    17   ar
     8    17    18   ar
     9    10     1    1
    10     1     2   ar
    11     2     3   ar
    12     3     4    1
    13     3     5   ar
    14     5    19    1
    15    19    20    1
    16    20    21    1
    17    21    22    1
    18    22    23    1
    19    23    24    1
    20    24    25    1
    21    25    26    2
    22    26    28    1
    23    28    29   ar
    24    29    30   ar
    25    30    31   ar
    26    31    32    1
    27    31    33   ar
    28    33    34   ar
    29     5     6   ar
    30     6     7   ar
    31     7     8    1
    32    18    14   ar
    33     7     1   ar
    34    26    21    1
    35    34    28   ar
    36    12    13    1
    37    22    27    1
