@<TRIPOS>MOLECULE
*****
 42 47 0 0 0
SMALL
GASTEIGER

@<TRIPOS>ATOM
      1 C         140.3412  145.5865  161.1329 C.3     1  UNL1        0.0730
      2 N         140.0178  144.4491  162.0558 N.3     1  UNL1       -0.2720
      3 C         138.8130  143.6348  161.6878 C.3     1  UNL1        0.0768
      4 C         138.2348  142.4466  162.3979 C.3     1  UNL1        0.0434
      5 C         138.7186  141.7794  163.6510 C.ar    1  UNL1       -0.0231
      6 C         137.8478  140.6163  164.0239 C.ar    1  UNL1       -0.0013
      7 C         138.1585  139.8093  165.2495 C.ar    1  UNL1        0.0388
      8 C         139.3400  140.1652  166.1023 C.ar    1  UNL1        0.1643
      9 O         139.8903  139.5582  167.3588 O.2     1  UNL1       -0.4335
     10 C         141.1012  140.3461  167.7625 C.ar    1  UNL1        0.2767
     11 N         141.2993  141.4401  166.7555 N.ar    1  UNL1       -0.2076
     12 C         140.2108  141.3283  165.7295 C.ar    1  UNL1        0.1145
     13 C         139.9001  142.1354  164.5039 C.ar    1  UNL1       -0.0039
     14 C         140.8896  143.2466  164.3140 C.3     1  UNL1        0.0450
     15 C         140.9420  144.2763  163.2245 C.3     1  UNL1        0.0769
     16 C         141.9627  140.0857  168.9624 C.3     1  UNL1        0.4148
     17 F         140.8036  139.4298  169.6524 F       1  UNL1       -0.1851
     18 F         143.1220  140.7417  168.2725 F       1  UNL1       -0.1851
     19 C         142.8244  139.8254  170.1624 C.3     1  UNL1        0.4635
     20 F         143.6861  139.5652  171.3623 F       1  UNL1       -0.1646
     21 F         142.5543  138.3553  170.0374 F       1  UNL1       -0.1646
     22 F         143.0945  141.2957  170.2873 F       1  UNL1       -0.1646
     23 C         140.2285  145.4031  159.6484 C.3     1  UNL1        0.0294
     24 C         141.4634  145.4037  158.7968 C.3     1  UNL1        0.0666
     25 S         142.2124  144.1257  158.5609 S.3     1  UNL1       -0.0756
     26 C         142.0175  141.2595  161.1711 C.ar    1  UNL1        0.1669
     27 N         143.2578  141.9750  161.6182 N.ar    1  UNL1       -0.1282
     28 N         143.4817  143.1357  160.6949 N.ar    1  UNL1       -0.1221
     29 C         142.3799  143.1376  159.6771 C.ar    1  UNL1        0.1932
     30 N         141.4750  141.9781  159.9714 N.ar    1  UNL1       -0.2884
     31 C         140.2437  141.6030  159.2012 C.3     1  UNL1        0.1340
     32 C         143.8376  137.8115  166.8322 C.3     1  UNL1        0.0521
     33 C         143.2342  138.3686  165.5770 C.ar    1  UNL1        0.0593
     34 C         143.8277  139.5884  164.9368 C.ar    1  UNL1        0.0147
     35 C         143.2243  140.1454  163.6816 C.ar    1  UNL1        0.0028
     36 C         142.0275  139.4827  163.0664 C.ar    1  UNL1        0.0206
     37 C         141.4241  140.0398  161.8112 C.ar    1  UNL1        0.0374
     38 C         140.2273  139.3769  161.1962 C.ar    1  UNL1        0.0031
     39 C         139.6338  138.1571  161.8363 C.ar    1  UNL1        0.0016
     40 C         140.2372  137.6001  163.0915 C.ar    1  UNL1        0.0191
     41 C         141.4340  138.2628  163.7066 C.ar    1  UNL1        0.0810
     42 N         142.0373  137.7057  164.9619 N.ar    1  UNL1       -0.2497
@<TRIPOS>BOND
     1    32    33    1
     2    33    34   ar
     3    34    35   ar
     4    35    36   ar
     5    36    37   ar
     6    37    26    1
     7    26    27   ar
     8    27    28   ar
     9    28    29   ar
    10    29    25    1
    11    25    24    1
    12    24    23    1
    13    23     1    1
    14     1     2    1
    15     2     3    1
    16     3     4    1
    17     4     5    1
    18     5     6   ar
    19     6     7   ar
    20     7     8   ar
    21     8     9   ar
    22     9    10   ar
    23    10    16    1
    24    16    17    1
    25    16    18    1
    26    16    19    1
    27    19    20    1
    28    19    21    1
    29    19    22    1
    30    10    11   ar
    31    11    12   ar
    32    12    13   ar
    33    13    14    1
    34    14    15    1
    35    29    30   ar
    36    30    31    1
    37    37    38   ar
    38    38    39   ar
    39    39    40   ar
    40    40    41   ar
    41    41    42   ar
    42    42    33   ar
    43    41    36   ar
    44    30    26   ar
    45    15     2    1
    46    13     5   ar
    47    12     8   ar
@<TRIPOS>MOLECULE
*****
 42 47 0 0 0
SMALL
GASTEIGER

@<TRIPOS>ATOM
      1 C         141.0606  138.4228  158.4095 C.3     1  UNL1        0.0730
      2 N         141.6269  138.6716  159.7761 N.3     1  UNL1       -0.2720
      3 C         143.1240  138.7106  159.8628 C.3     1  UNL1        0.0768
      4 C         143.9852  138.9362  161.0701 C.3     1  UNL1        0.0434
      5 C         143.5622  139.1784  162.4886 C.ar    1  UNL1       -0.0231
      6 C         144.7471  139.3556  163.3912 C.ar    1  UNL1       -0.0013
      7 C         144.5433  139.6094  164.8554 C.ar    1  UNL1        0.0388
      8 C         143.1545  139.6860  165.4172 C.ar    1  UNL1        0.1643
      9 O         142.6462  139.9222  166.8085 O.2     1  UNL1       -0.4335
     10 C         141.1471  139.8909  166.7659 C.ar    1  UNL1        0.2767
     11 N         140.7289  139.6354  165.3481 N.ar    1  UNL1       -0.2076
     12 C         141.9696  139.5088  164.5146 C.ar    1  UNL1        0.1145
     13 C         142.1734  139.2550  163.0504 C.ar    1  UNL1       -0.0039
     14 C         140.8647  139.1082  162.3322 C.3     1  UNL1        0.0450
     15 C         140.6216  138.8486  160.8750 C.3     1  UNL1        0.0769
     16 C         140.2276  140.0816  167.9355 C.3     1  UNL1        0.4148
     17 F         139.1645  140.6031  167.0147 F       1  UNL1       -0.1851
     18 F         141.2907  139.5601  168.8563 F       1  UNL1       -0.1851
     19 C         139.3081  140.2723  169.1053 C.3     1  UNL1        0.4635
     20 F         138.3886  140.4629  170.2749 F       1  UNL1       -0.1646
     21 F         140.3679  141.0671  169.8088 F       1  UNL1       -0.1646
     22 F         138.2482  139.4775  168.4016 F       1  UNL1       -0.1646
     23 C         139.5962  138.6259  158.1562 C.3     1  UNL1        0.0294
     24 C         139.1354  139.7580  157.2865 C.3     1  UNL1        0.0666
     25 S         138.1343  140.7454  157.8087 S.3     1  UNL1       -0.0756
     26 C         138.9547  142.9529  160.8941 C.ar    1  UNL1        0.1669
     27 N         139.4538  143.8199  159.7763 N.ar    1  UNL1       -0.1282
     28 N         139.2072  143.0985  158.4846 N.ar    1  UNL1       -0.1221
     29 C         138.5557  141.7856  158.8039 C.ar    1  UNL1        0.1932
     30 N         138.3997  141.6957  160.2930 N.ar    1  UNL1       -0.2884
     31 C         137.7947  140.5496  161.0485 C.3     1  UNL1        0.1340
     32 C         144.2367  143.1818  165.2870 C.3     1  UNL1        0.0521
     33 C         142.9281  143.2076  164.5542 C.ar    1  UNL1        0.0593
     34 C         142.8805  142.8756  163.0922 C.ar    1  UNL1        0.0147
     35 C         141.5719  142.9014  162.3595 C.ar    1  UNL1        0.0028
     36 C         140.3109  143.2591  163.0888 C.ar    1  UNL1        0.0206
     37 C         139.0023  143.2848  162.3560 C.ar    1  UNL1        0.0374
     38 C         137.7413  143.6425  163.0854 C.ar    1  UNL1        0.0031
     39 C         137.7889  143.9745  164.5474 C.ar    1  UNL1        0.0016
     40 C         139.0974  143.9487  165.2801 C.ar    1  UNL1        0.0191
     41 C         140.3585  143.5910  164.5508 C.ar    1  UNL1        0.0810
     42 N         141.6671  143.5653  165.2836 N.ar    1  UNL1       -0.2497
@<TRIPOS>BOND
     1    32    33    1
     2    33    34   ar
     3    34    35   ar
     4    35    36   ar
     5    36    37   ar
     6    37    26    1
     7    26    27   ar
     8    27    28   ar
     9    28    29   ar
    10    29    25    1
    11    25    24    1
    12    24    23    1
    13    23     1    1
    14     1     2    1
    15     2     3    1
    16     3     4    1
    17     4     5    1
    18     5     6   ar
    19     6     7   ar
    20     7     8   ar
    21     8     9   ar
    22     9    10   ar
    23    10    16    1
    24    16    17    1
    25    16    18    1
    26    16    19    1
    27    19    20    1
    28    19    21    1
    29    19    22    1
    30    10    11   ar
    31    11    12   ar
    32    12    13   ar
    33    13    14    1
    34    14    15    1
    35    29    30   ar
    36    30    31    1
    37    37    38   ar
    38    38    39   ar
    39    39    40   ar
    40    40    41   ar
    41    41    42   ar
    42    42    33   ar
    43    41    36   ar
    44    30    26   ar
    45    15     2    1
    46    13     5   ar
    47    12     8   ar
@<TRIPOS>MOLECULE
*****
 42 47 0 0 0
SMALL
GASTEIGER

@<TRIPOS>ATOM
      1 C         138.4005  141.3877  158.6486 C.3     1  UNL1        0.0730
      2 N         138.6027  140.8029  160.0150 N.3     1  UNL1       -0.2720
      3 C         138.3857  139.3229  160.1281 C.3     1  UNL1        0.0768
      4 C         138.5075  138.4498  161.3418 C.3     1  UNL1        0.0434
      5 C         138.8765  138.8411  162.7420 C.ar    1  UNL1       -0.0231
      6 C         138.8825  137.6541  163.6591 C.ar    1  UNL1       -0.0013
      7 C         139.2266  137.8280  165.1087 C.ar    1  UNL1        0.0388
      8 C         139.5648  139.1889  165.6413 C.ar    1  UNL1        0.1643
      9 O         139.9414  139.6649  167.0130 O.2     1  UNL1       -0.4335
     10 C         140.1681  141.1461  166.9437 C.ar    1  UNL1        0.2767
     11 N         139.9317  141.5855  165.5291 N.ar    1  UNL1       -0.2076
     12 C         139.5588  140.3759  164.7241 C.ar    1  UNL1        0.1145
     13 C         139.2147  140.2020  163.2746 C.ar    1  UNL1       -0.0039
     14 C         139.2674  141.5078  162.5383 C.3     1  UNL1        0.0450
     15 C         138.9951  141.7751  161.0876 C.3     1  UNL1        0.0769
     16 C         140.5621  142.0322  168.0880 C.3     1  UNL1        0.4148
     17 F         139.6491  141.2641  168.9971 F       1  UNL1       -0.1851
     18 F         141.4750  142.8003  167.1788 F       1  UNL1       -0.1851
     19 C         140.9561  142.9185  169.2323 C.3     1  UNL1        0.4635
     20 F         141.3502  143.8046  170.3765 F       1  UNL1       -0.1646
     21 F         140.0062  143.9715  168.7438 F       1  UNL1       -0.1646
     22 F         141.9060  141.8653  169.7207 F       1  UNL1       -0.1646
     23 C         138.4714  142.8728  158.4504 C.3     1  UNL1        0.0294
     24 C         139.5388  143.4628  157.5770 C.3     1  UNL1        0.0666
     25 S         140.4885  144.4800  158.1367 S.3     1  UNL1       -0.0756
     26 C         142.8713  143.6535  161.0871 C.ar    1  UNL1        0.1669
     27 N         143.6593  143.1304  159.9227 N.ar    1  UNL1       -0.1282
     28 N         142.8626  143.3764  158.6759 N.ar    1  UNL1       -0.1221
     29 C         141.5822  144.0514  159.0695 C.ar    1  UNL1        0.1932
     30 N         141.5877  144.2226  160.5597 N.ar    1  UNL1       -0.2884
     31 C         140.5002  144.8525  161.3788 C.3     1  UNL1        0.1340
     32 C         143.1889  138.4284  165.5422 C.3     1  UNL1        0.0521
     33 C         143.2149  139.7248  164.7881 C.ar    1  UNL1        0.0593
     34 C         142.7932  139.7641  163.3491 C.ar    1  UNL1        0.0147
     35 C         142.8193  141.0606  162.5951 C.ar    1  UNL1        0.0028
     36 C         143.2670  142.3177  163.2800 C.ar    1  UNL1        0.0206
     37 C         143.2930  143.6142  162.5259 C.ar    1  UNL1        0.0374
     38 C         143.7408  144.8712  163.2109 C.ar    1  UNL1        0.0031
     39 C         144.1625  144.8319  164.6499 C.ar    1  UNL1        0.0016
     40 C         144.1364  143.5356  165.4039 C.ar    1  UNL1        0.0191
     41 C         143.6887  142.2784  164.7190 C.ar    1  UNL1        0.0810
     42 N         143.6627  140.9820  165.4731 N.ar    1  UNL1       -0.2497
@<TRIPOS>BOND
     1    32    33    1
     2    33    34   ar
     3    34    35   ar
     4    35    36   ar
     5    36    37   ar
     6    37    26    1
     7    26    27   ar
     8    27    28   ar
     9    28    29   ar
    10    29    25    1
    11    25    24    1
    12    24    23    1
    13    23     1    1
    14     1     2    1
    15     2     3    1
    16     3     4    1
    17     4     5    1
    18     5     6   ar
    19     6     7   ar
    20     7     8   ar
    21     8     9   ar
    22     9    10   ar
    23    10    16    1
    24    16    17    1
    25    16    18    1
    26    16    19    1
    27    19    20    1
    28    19    21    1
    29    19    22    1
    30    10    11   ar
    31    11    12   ar
    32    12    13   ar
    33    13    14    1
    34    14    15    1
    35    29    30   ar
    36    30    31    1
    37    37    38   ar
    38    38    39   ar
    39    39    40   ar
    40    40    41   ar
    41    41    42   ar
    42    42    33   ar
    43    41    36   ar
    44    30    26   ar
    45    15     2    1
    46    13     5   ar
    47    12     8   ar
@<TRIPOS>MOLECULE
*****
 42 47 0 0 0
SMALL
GASTEIGER

@<TRIPOS>ATOM
      1 C         141.1519  143.5188  157.9266 C.3     1  UNL1        0.0730
      2 N         140.9098  143.4489  159.4053 N.3     1  UNL1       -0.2720
      3 C         141.2311  144.6945  160.1769 C.3     1  UNL1        0.0768
      4 C         141.1003  144.9415  161.6507 C.3     1  UNL1        0.0434
      5 C         140.6161  144.0040  162.7167 C.ar    1  UNL1       -0.0231
      6 C         140.6430  144.6515  164.0695 C.ar    1  UNL1       -0.0013
      7 C         140.1968  143.8830  165.2779 C.ar    1  UNL1        0.0388
      8 C         139.7237  142.4668  165.1336 C.ar    1  UNL1        0.1643
      9 O         139.2273  141.4674  166.1359 O.2     1  UNL1       -0.4335
     10 C         138.8935  140.2021  165.4026 C.ar    1  UNL1        0.2767
     11 N         139.1837  140.4196  163.9470 N.ar    1  UNL1       -0.2076
     12 C         139.6968  141.8193  163.7808 C.ar    1  UNL1        0.1145
     13 C         140.1430  142.5878  162.5724 C.ar    1  UNL1       -0.0039
     14 C         140.0373  141.7595  161.3263 C.3     1  UNL1        0.0450
     15 C         140.3786  142.1428  159.9168 C.3     1  UNL1        0.0769
     16 C         138.3628  138.9408  166.0168 C.3     1  UNL1        0.4148
     17 F         138.3711  139.5947  167.3667 F       1  UNL1       -0.1851
     18 F         138.3544  138.2868  164.6668 F       1  UNL1       -0.1851
     19 C         137.8320  137.6794  166.6310 C.3     1  UNL1        0.4635
     20 F         137.3013  136.4180  167.2451 F       1  UNL1       -0.1646
     21 F         137.1221  138.4872  167.6767 F       1  UNL1       -0.1646
     22 F         138.5419  136.8716  165.5853 F       1  UNL1       -0.1646
     23 C         142.0415  142.5093  157.2637 C.3     1  UNL1        0.0294
     24 C         143.5085  142.7853  157.1150 C.3     1  UNL1        0.0666
     25 S         144.4926  142.1271  158.0360 S.3     1  UNL1       -0.0756
     26 C         143.5573  141.2348  161.6959 C.ar    1  UNL1        0.1669
     27 N         143.9982  142.6605  161.8487 N.ar    1  UNL1       -0.1282
     28 N         144.4021  143.1682  160.4963 N.ar    1  UNL1       -0.1221
     29 C         144.2110  142.0564  159.5076 C.ar    1  UNL1        0.1932
     30 N         143.6889  140.8616  160.2490 N.ar    1  UNL1       -0.2884
     31 C         143.3567  139.5275  159.6490 C.3     1  UNL1        0.1340
     32 C         143.0785  142.2872  168.4718 C.3     1  UNL1        0.0521
     33 C         143.0765  141.8004  167.0530 C.ar    1  UNL1        0.0593
     34 C         143.5634  142.6955  165.9522 C.ar    1  UNL1        0.0147
     35 C         143.5614  142.2086  164.5335 C.ar    1  UNL1        0.0028
     36 C         143.0725  140.8266  164.2154 C.ar    1  UNL1        0.0206
     37 C         143.0705  140.3398  162.7966 C.ar    1  UNL1        0.0374
     38 C         142.5816  138.9578  162.4787 C.ar    1  UNL1        0.0031
     39 C         142.0947  138.0627  163.5795 C.ar    1  UNL1        0.0016
     40 C         142.0967  138.5495  164.9982 C.ar    1  UNL1        0.0191
     41 C         142.5856  139.9315  165.3162 C.ar    1  UNL1        0.0810
     42 N         142.5876  140.4184  166.7350 N.ar    1  UNL1       -0.2497
@<TRIPOS>BOND
     1    32    33    1
     2    33    34   ar
     3    34    35   ar
     4    35    36   ar
     5    36    37   ar
     6    37    26    1
     7    26    27   ar
     8    27    28   ar
     9    28    29   ar
    10    29    25    1
    11    25    24    1
    12    24    23    1
    13    23     1    1
    14     1     2    1
    15     2     3    1
    16     3     4    1
    17     4     5    1
    18     5     6   ar
    19     6     7   ar
    20     7     8   ar
    21     8     9   ar
    22     9    10   ar
    23    10    16    1
    24    16    17    1
    25    16    18    1
    26    16    19    1
    27    19    20    1
    28    19    21    1
    29    19    22    1
    30    10    11   ar
    31    11    12   ar
    32    12    13   ar
    33    13    14    1
    34    14    15    1
    35    29    30   ar
    36    30    31    1
    37    37    38   ar
    38    38    39   ar
    39    39    40   ar
    40    40    41   ar
    41    41    42   ar
    42    42    33   ar
    43    41    36   ar
    44    30    26   ar
    45    15     2    1
    46    13     5   ar
    47    12     8   ar
@<TRIPOS>MOLECULE
*****
 42 47 0 0 0
SMALL
GASTEIGER

@<TRIPOS>ATOM
      1 C         141.4642  145.0979  159.8524 C.3     1  UNL1        0.0730
      2 N         141.9436  144.0281  160.7882 N.3     1  UNL1       -0.2720
      3 C         143.0883  143.1950  160.2924 C.3     1  UNL1        0.0768
      4 C         143.7871  142.0608  160.9820 C.3     1  UNL1        0.0434
      5 C         143.5137  141.4797  162.3375 C.ar    1  UNL1       -0.0231
      6 C         144.4488  140.3484  162.6474 C.ar    1  UNL1       -0.0013
      7 C         144.3442  139.6266  163.9582 C.ar    1  UNL1        0.0388
      8 C         143.3046  140.0360  164.9590 C.ar    1  UNL1        0.1643
      9 O         142.9652  139.5149  166.3240 O.2     1  UNL1       -0.4335
     10 C         141.8205  140.3240  166.8577 C.ar    1  UNL1        0.2767
     11 N         141.4523  141.3453  165.8225 N.ar    1  UNL1       -0.2076
     12 C         142.3695  141.1672  164.6490 C.ar    1  UNL1        0.1145
     13 C         142.4741  141.8891  163.3383 C.ar    1  UNL1       -0.0039
     14 C         141.4511  142.9808  163.2308 C.3     1  UNL1        0.0450
     15 C         141.2151  143.9327  162.0958 C.3     1  UNL1        0.0769
     16 C         141.1599  140.1437  168.1922 C.3     1  UNL1        0.4148
     17 F         140.0940  141.1222  167.7968 F       1  UNL1       -0.1851
     18 F         142.2258  139.1652  168.5877 F       1  UNL1       -0.1851
     19 C         140.4993  139.9633  169.5269 C.3     1  UNL1        0.4635
     20 F         139.8387  139.7829  170.8614 F       1  UNL1       -0.1646
     21 F         141.6198  139.0650  169.9600 F       1  UNL1       -0.1646
     22 F         139.3788  140.8616  169.0936 F       1  UNL1       -0.1646
     23 C         141.3887  144.8270  158.3791 C.3     1  UNL1        0.0294
     24 C         140.0550  144.6390  157.7185 C.3     1  UNL1        0.0666
     25 S         139.3919  143.2937  157.7371 S.3     1  UNL1       -0.0756
     26 C         139.5873  140.9261  160.8066 C.ar    1  UNL1        0.1669
     27 N         138.4877  141.8558  161.2271 N.ar    1  UNL1       -0.1282
     28 N         138.2807  142.8558  160.1284 N.ar    1  UNL1       -0.1221
     29 C         139.2523  142.5442  159.0289 C.ar    1  UNL1        0.1932
     30 N         140.0598  141.3517  159.4481 N.ar    1  UNL1       -0.2884
     31 C         141.1488  140.6992  158.6490 C.3     1  UNL1        0.1340
     32 C         137.9376  138.6494  167.0792 C.3     1  UNL1        0.0521
     33 C         138.4834  138.9304  165.7106 C.ar    1  UNL1        0.0593
     34 C         137.9500  140.0831  164.9126 C.ar    1  UNL1        0.0147
     35 C         138.4958  140.3641  163.5439 C.ar    1  UNL1        0.0028
     36 C         139.5749  139.4925  162.9733 C.ar    1  UNL1        0.0206
     37 C         140.1207  139.7735  161.6046 C.ar    1  UNL1        0.0374
     38 C         141.1998  138.9018  161.0340 C.ar    1  UNL1        0.0031
     39 C         141.7332  137.7491  161.8320 C.ar    1  UNL1        0.0016
     40 C         141.1874  137.4681  163.2006 C.ar    1  UNL1        0.0191
     41 C         140.1083  138.3397  163.7713 C.ar    1  UNL1        0.0810
     42 N         139.5625  138.0587  165.1399 N.ar    1  UNL1       -0.2497
@<TRIPOS>BOND
     1    32    33    1
     2    33    34   ar
     3    34    35   ar
     4    35    36   ar
     5    36    37   ar
     6    37    26    1
     7    26    27   ar
     8    27    28   ar
     9    28    29   ar
    10    29    25    1
    11    25    24    1
    12    24    23    1
    13    23     1    1
    14     1     2    1
    15     2     3    1
    16     3     4    1
    17     4     5    1
    18     5     6   ar
    19     6     7   ar
    20     7     8   ar
    21     8     9   ar
    22     9    10   ar
    23    10    16    1
    24    16    17    1
    25    16    18    1
    26    16    19    1
    27    19    20    1
    28    19    21    1
    29    19    22    1
    30    10    11   ar
    31    11    12   ar
    32    12    13   ar
    33    13    14    1
    34    14    15    1
    35    29    30   ar
    36    30    31    1
    37    37    38   ar
    38    38    39   ar
    39    39    40   ar
    40    40    41   ar
    41    41    42   ar
    42    42    33   ar
    43    41    36   ar
    44    30    26   ar
    45    15     2    1
    46    13     5   ar
    47    12     8   ar
@<TRIPOS>MOLECULE
*****
 42 47 0 0 0
SMALL
GASTEIGER

@<TRIPOS>ATOM
      1 C         141.5242  145.5914  158.6999 C.3     1  UNL1        0.0730
      2 N         141.2115  145.1268  160.0914 N.3     1  UNL1       -0.2720
      3 C         140.1714  145.9211  160.8245 C.3     1  UNL1        0.0768
      4 C         139.6432  145.7141  162.2131 C.3     1  UNL1        0.0434
      5 C         140.0246  144.6618  163.2115 C.ar    1  UNL1       -0.0231
      6 C         139.2519  144.8121  164.4884 C.ar    1  UNL1       -0.0013
      7 C         139.4831  143.8572  165.6218 C.ar    1  UNL1        0.0388
      8 C         140.4869  142.7518  165.4784 C.ar    1  UNL1        0.1643
      9 O         140.9262  141.6670  166.4165 O.2     1  UNL1       -0.4335
     10 C         141.9705  140.8462  165.7195 C.ar    1  UNL1        0.2767
     11 N         142.1765  141.4237  164.3505 N.ar    1  UNL1       -0.2076
     12 C         141.2596  142.6015  164.2015 C.ar    1  UNL1        0.1145
     13 C         141.0285  143.5565  163.0681 C.ar    1  UNL1       -0.0039
     14 C         141.8988  143.2305  161.8907 C.3     1  UNL1        0.0450
     15 C         141.9802  143.9295  160.5660 C.3     1  UNL1        0.0769
     16 C         142.6835  139.6567  166.2910 C.3     1  UNL1        0.4148
     17 F         141.6378  139.5436  167.3603 F       1  UNL1       -0.1851
     18 F         143.7293  139.7698  165.2215 F       1  UNL1       -0.1851
     19 C         143.3967  138.4671  166.8624 C.3     1  UNL1        0.4635
     20 F         144.1097  137.2777  167.4339 F       1  UNL1       -0.1646
     21 F         143.8111  138.0523  165.4818 F       1  UNL1       -0.1646
     22 F         142.9822  138.8820  168.2431 F       1  UNL1       -0.1646
     23 C         140.5592  145.3201  157.5841 C.3     1  UNL1        0.0294
     24 C         140.3219  143.9125  157.1232 C.3     1  UNL1        0.0666
     25 S         139.0873  143.1794  157.5569 S.3     1  UNL1       -0.0756
     26 C         139.4779  140.9577  160.7156 C.ar    1  UNL1        0.1669
     27 N         138.4915  141.9789  161.1996 N.ar    1  UNL1       -0.1282
     28 N         138.2252  142.9354  160.0753 N.ar    1  UNL1       -0.1221
     29 C         139.0469  142.5054  158.8964 C.ar    1  UNL1        0.1932
     30 N         139.8211  141.2831  159.2921 N.ar    1  UNL1       -0.2884
     31 C         140.7717  140.5202  158.4178 C.3     1  UNL1        0.1340
     32 C         137.9995  138.7917  167.0696 C.3     1  UNL1        0.0521
     33 C         138.5059  139.0469  165.6809 C.ar    1  UNL1        0.0593
     34 C         137.9588  140.1924  164.8817 C.ar    1  UNL1        0.0147
     35 C         138.4652  140.4475  163.4930 C.ar    1  UNL1        0.0028
     36 C         139.5186  139.5571  162.9034 C.ar    1  UNL1        0.0206
     37 C         140.0250  139.8123  161.5147 C.ar    1  UNL1        0.0374
     38 C         141.0784  138.9219  160.9252 C.ar    1  UNL1        0.0031
     39 C         141.6254  137.7765  161.7244 C.ar    1  UNL1        0.0016
     40 C         141.1191  137.5214  163.1130 C.ar    1  UNL1        0.0191
     41 C         140.0657  138.4117  163.7026 C.ar    1  UNL1        0.0810
     42 N         139.5593  138.1565  165.0913 N.ar    1  UNL1       -0.2497
@<TRIPOS>BOND
     1    32    33    1
     2    33    34   ar
     3    34    35   ar
     4    35    36   ar
     5    36    37   ar
     6    37    26    1
     7    26    27   ar
     8    27    28   ar
     9    28    29   ar
    10    29    25    1
    11    25    24    1
    12    24    23    1
    13    23     1    1
    14     1     2    1
    15     2     3    1
    16     3     4    1
    17     4     5    1
    18     5     6   ar
    19     6     7   ar
    20     7     8   ar
    21     8     9   ar
    22     9    10   ar
    23    10    16    1
    24    16    17    1
    25    16    18    1
    26    16    19    1
    27    19    20    1
    28    19    21    1
    29    19    22    1
    30    10    11   ar
    31    11    12   ar
    32    12    13   ar
    33    13    14    1
    34    14    15    1
    35    29    30   ar
    36    30    31    1
    37    37    38   ar
    38    38    39   ar
    39    39    40   ar
    40    40    41   ar
    41    41    42   ar
    42    42    33   ar
    43    41    36   ar
    44    30    26   ar
    45    15     2    1
    46    13     5   ar
    47    12     8   ar
@<TRIPOS>MOLECULE
*****
 42 47 0 0 0
SMALL
GASTEIGER

@<TRIPOS>ATOM
      1 C         142.6772  137.5680  159.2814 C.3     1  UNL1        0.0730
      2 N         142.9266  138.4191  160.4912 N.3     1  UNL1       -0.2720
      3 C         143.9642  139.4904  160.3304 C.3     1  UNL1        0.0768
      4 C         144.4370  140.4936  161.3405 C.3     1  UNL1        0.0434
      5 C         143.9890  140.6732  162.7606 C.ar    1  UNL1       -0.0231
      6 C         144.7208  141.7999  163.4278 C.ar    1  UNL1       -0.0013
      7 C         144.4212  142.1474  164.8558 C.ar    1  UNL1        0.0388
      8 C         143.3898  141.3683  165.6169 C.ar    1  UNL1        0.1643
      9 O         142.8850  141.4794  167.0250 O.2     1  UNL1       -0.4335
     10 C         141.8413  140.4214  167.2282 C.ar    1  UNL1        0.2767
     11 N         141.7009  139.6563  165.9456 N.ar    1  UNL1       -0.2076
     12 C         142.6579  140.2415  164.9497 C.ar    1  UNL1        0.1145
     13 C         142.9576  139.8940  163.5216 C.ar    1  UNL1       -0.0039
     14 C         142.1194  138.7428  163.0503 C.3     1  UNL1        0.0450
     15 C         142.1057  138.0864  161.7016 C.3     1  UNL1        0.0769
     16 C         141.0728  140.1721  168.4920 C.3     1  UNL1        0.4148
     17 F         140.0230  141.1460  168.0457 F       1  UNL1       -0.1851
     18 F         142.1227  139.1981  168.9383 F       1  UNL1       -0.1851
     19 C         140.3044  139.9228  169.7559 C.3     1  UNL1        0.4635
     20 F         139.5359  139.6735  171.0197 F       1  UNL1       -0.1646
     21 F         141.4525  139.1230  170.2962 F       1  UNL1       -0.1646
     22 F         139.1562  140.7226  169.2155 F       1  UNL1       -0.1646
     23 C         142.7830  138.1651  157.9095 C.3     1  UNL1        0.0294
     24 C         141.5407  138.4620  157.1229 C.3     1  UNL1        0.0666
     25 S         140.8978  139.8138  157.2183 S.3     1  UNL1       -0.0756
     26 C         138.6790  140.8736  160.2215 C.ar    1  UNL1        0.1669
     27 N         137.7149  140.0423  159.4279 N.ar    1  UNL1       -0.1282
     28 N         138.4287  139.5443  158.2063 N.ar    1  UNL1       -0.1221
     29 C         139.8340  140.0676  158.2449 C.ar    1  UNL1        0.1932
     30 N         139.9886  140.8891  159.4904 N.ar    1  UNL1       -0.2884
     31 C         141.2342  141.6012  159.9279 C.3     1  UNL1        0.1340
     32 C         138.2763  138.4385  166.6371 C.3     1  UNL1        0.0521
     33 C         138.3035  139.2207  165.3574 C.ar    1  UNL1        0.0593
     34 C         138.5975  138.5269  164.0604 C.ar    1  UNL1        0.0147
     35 C         138.6246  139.3091  162.7808 C.ar    1  UNL1        0.0028
     36 C         138.3578  140.7851  162.7981 C.ar    1  UNL1        0.0206
     37 C         138.3850  141.5673  161.5185 C.ar    1  UNL1        0.0374
     38 C         138.1182  143.0432  161.5359 C.ar    1  UNL1        0.0031
     39 C         137.8242  143.7370  162.8330 C.ar    1  UNL1        0.0016
     40 C         137.7970  142.9549  164.1125 C.ar    1  UNL1        0.0191
     41 C         138.0638  141.4789  164.0952 C.ar    1  UNL1        0.0810
     42 N         138.0367  140.6967  165.3748 N.ar    1  UNL1       -0.2497
@<TRIPOS>BOND
     1    32    33    1
     2    33    34   ar
     3    34    35   ar
     4    35    36   ar
     5    36    37   ar
     6    37    26    1
     7    26    27   ar
     8    27    28   ar
     9    28    29   ar
    10    29    25    1
    11    25    24    1
    12    24    23    1
    13    23     1    1
    14     1     2    1
    15     2     3    1
    16     3     4    1
    17     4     5    1
    18     5     6   ar
    19     6     7   ar
    20     7     8   ar
    21     8     9   ar
    22     9    10   ar
    23    10    16    1
    24    16    17    1
    25    16    18    1
    26    16    19    1
    27    19    20    1
    28    19    21    1
    29    19    22    1
    30    10    11   ar
    31    11    12   ar
    32    12    13   ar
    33    13    14    1
    34    14    15    1
    35    29    30   ar
    36    30    31    1
    37    37    38   ar
    38    38    39   ar
    39    39    40   ar
    40    40    41   ar
    41    41    42   ar
    42    42    33   ar
    43    41    36   ar
    44    30    26   ar
    45    15     2    1
    46    13     5   ar
    47    12     8   ar
@<TRIPOS>MOLECULE
*****
 42 47 0 0 0
SMALL
GASTEIGER

@<TRIPOS>ATOM
      1 C         143.1481  141.4721  158.4062 C.3     1  UNL1        0.0730
      2 N         142.8923  140.8614  159.7522 N.3     1  UNL1       -0.2720
      3 C         142.5250  139.4070  159.7477 C.3     1  UNL1        0.0768
      4 C         142.2123  138.5178  160.9146 C.3     1  UNL1        0.0434
      5 C         142.1896  138.8633  162.3740 C.ar    1  UNL1       -0.0231
      6 C         141.8258  137.6743  163.2131 C.ar    1  UNL1       -0.0013
      7 C         141.7465  137.8054  164.7052 C.ar    1  UNL1        0.0388
      8 C         142.0310  139.1255  165.3584 C.ar    1  UNL1        0.1643
      9 O         142.0313  139.5549  166.7956 O.2     1  UNL1       -0.4335
     10 C         142.3952  141.0092  166.8448 C.ar    1  UNL1        0.2767
     11 N         142.6199  141.4787  165.4380 N.ar    1  UNL1       -0.2076
     12 C         142.3948  140.3145  164.5193 C.ar    1  UNL1        0.1145
     13 C         142.4741  140.1834  163.0272 C.ar    1  UNL1       -0.0039
     14 C         142.8515  141.4839  162.3821 C.3     1  UNL1        0.0450
     15 C         143.0376  141.7856  160.9245 C.3     1  UNL1        0.0769
     16 C         142.5137  141.8471  168.0833 C.3     1  UNL1        0.4148
     17 F         141.3250  141.1461  168.6712 F       1  UNL1       -0.1851
     18 F         143.7024  142.5481  167.4954 F       1  UNL1       -0.1851
     19 C         142.6322  142.6850  169.3219 C.3     1  UNL1        0.4635
     20 F         142.7507  143.5229  170.5603 F       1  UNL1       -0.1646
     21 F         144.0272  142.1756  169.5330 F       1  UNL1       -0.1646
     22 F         141.2372  143.1944  169.1107 F       1  UNL1       -0.1646
     23 C         142.0048  142.0061  157.5954 C.3     1  UNL1        0.0294
     24 C         141.8577  143.4846  157.3890 C.3     1  UNL1        0.0666
     25 S         140.5772  144.1704  157.7631 S.3     1  UNL1       -0.0756
     26 C         139.2560  143.4234  161.3355 C.ar    1  UNL1        0.1669
     27 N         138.1636  142.8339  160.4932 N.ar    1  UNL1       -0.1282
     28 N         138.5256  143.0420  159.0526 N.ar    1  UNL1       -0.1221
     29 C         139.8417  143.7600  159.0044 C.ar    1  UNL1        0.1932
     30 N         140.2930  143.9957  160.4153 N.ar    1  UNL1       -0.2884
     31 C         141.5592  144.6832  160.8327 C.3     1  UNL1        0.1340
     32 C         138.3573  138.3764  165.9150 C.3     1  UNL1        0.0521
     33 C         138.5937  139.6418  165.1449 C.ar    1  UNL1        0.0593
     34 C         138.5467  139.6273  163.6457 C.ar    1  UNL1        0.0147
     35 C         138.7831  140.8926  162.8756 C.ar    1  UNL1        0.0028
     36 C         139.0665  142.1725  163.6047 C.ar    1  UNL1        0.0206
     37 C         139.3029  143.4379  162.8346 C.ar    1  UNL1        0.0374
     38 C         139.5863  144.7177  163.5638 C.ar    1  UNL1        0.0031
     39 C         139.6333  144.7322  165.0630 C.ar    1  UNL1        0.0016
     40 C         139.3969  143.4669  165.8330 C.ar    1  UNL1        0.0191
     41 C         139.1135  142.1871  165.1039 C.ar    1  UNL1        0.0810
     42 N         138.8771  140.9217  165.8741 N.ar    1  UNL1       -0.2497
@<TRIPOS>BOND
     1    32    33    1
     2    33    34   ar
     3    34    35   ar
     4    35    36   ar
     5    36    37   ar
     6    37    26    1
     7    26    27   ar
     8    27    28   ar
     9    28    29   ar
    10    29    25    1
    11    25    24    1
    12    24    23    1
    13    23     1    1
    14     1     2    1
    15     2     3    1
    16     3     4    1
    17     4     5    1
    18     5     6   ar
    19     6     7   ar
    20     7     8   ar
    21     8     9   ar
    22     9    10   ar
    23    10    16    1
    24    16    17    1
    25    16    18    1
    26    16    19    1
    27    19    20    1
    28    19    21    1
    29    19    22    1
    30    10    11   ar
    31    11    12   ar
    32    12    13   ar
    33    13    14    1
    34    14    15    1
    35    29    30   ar
    36    30    31    1
    37    37    38   ar
    38    38    39   ar
    39    39    40   ar
    40    40    41   ar
    41    41    42   ar
    42    42    33   ar
    43    41    36   ar
    44    30    26   ar
    45    15     2    1
    46    13     5   ar
    47    12     8   ar
@<TRIPOS>MOLECULE
*****
 42 47 0 0 0
SMALL
GASTEIGER

@<TRIPOS>ATOM
      1 C         143.4689  141.3868  158.0257 C.3     1  UNL1        0.0730
      2 N         143.0099  141.9606  159.3334 N.3     1  UNL1       -0.2720
      3 C         142.6030  143.4041  159.3036 C.3     1  UNL1        0.0768
      4 C         142.1042  144.2586  160.4311 C.3     1  UNL1        0.0434
      5 C         141.8890  143.8806  161.8665 C.ar    1  UNL1       -0.0231
      6 C         141.3762  145.0405  162.6677 C.ar    1  UNL1       -0.0013
      7 C         141.0940  144.8746  164.1315 C.ar    1  UNL1        0.0388
      8 C         141.3244  143.5488  164.7943 C.ar    1  UNL1        0.1643
      9 O         141.1376  143.0882  166.2095 O.2     1  UNL1       -0.4335
     10 C         141.5348  141.6436  166.2831 C.ar    1  UNL1        0.2767
     11 N         141.9673  141.2114  164.9133 N.ar    1  UNL1       -0.2076
     12 C         141.8373  142.3889  163.9931 C.ar    1  UNL1        0.1145
     13 C         142.1195  142.5549  162.5293 C.ar    1  UNL1       -0.0039
     14 C         142.6221  141.2796  161.9201 C.3     1  UNL1        0.0450
     15 C         143.0184  141.0152  160.4978 C.3     1  UNL1        0.0769
     16 C         141.5050  140.7823  167.5108 C.3     1  UNL1        0.4148
     17 F         143.0005  140.8561  167.5989 F       1  UNL1       -0.1851
     18 F         140.0093  140.7086  167.4226 F       1  UNL1       -0.1851
     19 C         141.4750  139.9211  168.7385 C.3     1  UNL1        0.4635
     20 F         141.4449  139.0598  169.9662 F       1  UNL1       -0.1646
     21 F         142.9351  140.1845  168.9590 F       1  UNL1       -0.1646
     22 F         140.0148  139.6577  168.5180 F       1  UNL1       -0.1646
     23 C         143.5141  139.8998  157.8336 C.3     1  UNL1        0.0294
     24 C         142.5375  139.2327  156.9109 C.3     1  UNL1        0.0666
     25 S         141.6104  138.1771  157.4361 S.3     1  UNL1       -0.0756
     26 C         139.4531  138.8767  160.5861 C.ar    1  UNL1        0.1669
     27 N         138.5076  139.2770  159.4924 N.ar    1  UNL1       -0.1282
     28 N         139.2007  139.0637  158.1794 N.ar    1  UNL1       -0.1221
     29 C         140.5745  138.5315  158.4615 C.ar    1  UNL1        0.1932
     30 N         140.7304  138.4159  159.9488 N.ar    1  UNL1       -0.2884
     31 C         141.9497  137.9257  160.6720 C.3     1  UNL1        0.1340
     32 C         137.6184  144.1192  164.6358 C.3     1  UNL1        0.0521
     33 C         138.0065  142.8214  163.9914 C.ar    1  UNL1        0.0593
     34 C         138.2888  142.7700  162.5191 C.ar    1  UNL1        0.0147
     35 C         138.6769  141.4723  161.8748 C.ar    1  UNL1        0.0028
     36 C         138.7826  140.2259  162.7027 C.ar    1  UNL1        0.0206
     37 C         139.1707  138.9281  162.0583 C.ar    1  UNL1        0.0374
     38 C         139.2764  137.6818  162.8862 C.ar    1  UNL1        0.0031
     39 C         138.9940  137.7333  164.3585 C.ar    1  UNL1        0.0016
     40 C         138.6060  139.0309  165.0028 C.ar    1  UNL1        0.0191
     41 C         138.5003  140.2773  164.1750 C.ar    1  UNL1        0.0810
     42 N         138.1122  141.5751  164.8194 N.ar    1  UNL1       -0.2497
@<TRIPOS>BOND
     1    32    33    1
     2    33    34   ar
     3    34    35   ar
     4    35    36   ar
     5    36    37   ar
     6    37    26    1
     7    26    27   ar
     8    27    28   ar
     9    28    29   ar
    10    29    25    1
    11    25    24    1
    12    24    23    1
    13    23     1    1
    14     1     2    1
    15     2     3    1
    16     3     4    1
    17     4     5    1
    18     5     6   ar
    19     6     7   ar
    20     7     8   ar
    21     8     9   ar
    22     9    10   ar
    23    10    16    1
    24    16    17    1
    25    16    18    1
    26    16    19    1
    27    19    20    1
    28    19    21    1
    29    19    22    1
    30    10    11   ar
    31    11    12   ar
    32    12    13   ar
    33    13    14    1
    34    14    15    1
    35    29    30   ar
    36    30    31    1
    37    37    38   ar
    38    38    39   ar
    39    39    40   ar
    40    40    41   ar
    41    41    42   ar
    42    42    33   ar
    43    41    36   ar
    44    30    26   ar
    45    15     2    1
    46    13     5   ar
    47    12     8   ar
