@<TRIPOS>MOLECULE
*****
 33 37 0 0 0
SMALL
GASTEIGER

@<TRIPOS>ATOM
      1 N         139.2210  142.3836  164.6440 N.pl3   1  UNL1       -0.3076
      2 C         138.3436  143.5339  165.0400 C.3     1  UNL1        0.0909
      3 C         138.9807  144.7964  164.5396 C.3     1  UNL1        0.0245
      4 C         140.2518  144.4263  163.8345 C.3     1  UNL1        0.0372
      5 C         141.4312  144.9777  163.0895 C.3     1  UNL1        0.0738
      6 N         142.3085  143.8273  162.6935 N.3     1  UNL1       -0.2712
      7 C         141.6715  142.5649  163.1938 C.3     1  UNL1        0.0921
      8 C         140.4003  142.9350  163.8990 C.3     1  UNL1        0.0901
      9 C         138.7215  138.4806  164.1265 C.ar    1  UNL1        0.1672
     10 C         138.9783  139.9283  163.8297 C.ar    1  UNL1        0.0537
     11 C         138.9642  140.9358  164.9409 C.ar    1  UNL1        0.0510
     12 C         138.6932  140.4956  166.3490 C.ar    1  UNL1        0.0170
     13 C         138.4364  139.0478  166.6458 C.ar    1  UNL1        0.0340
     14 C         138.4505  138.0403  165.5346 C.ar    1  UNL1        0.1739
     15 F         138.1937  136.5926  165.8316 F       1  UNL1       -0.2010
     16 C         138.7799  137.9317  161.5878 C.3     1  UNL1        0.2526
     17 O         138.7356  137.4732  163.0153 O.3     1  UNL1       -0.4691
     18 C         143.5968  143.9227  161.9311 C.3     1  UNL1        0.0731
     19 C         144.0675  142.7620  161.1058 C.3     1  UNL1        0.0294
     20 C         144.9558  141.7188  161.7164 C.3     1  UNL1        0.0666
     21 S         145.4683  141.8955  163.1150 S.3     1  UNL1       -0.0756
     22 C         144.5999  141.5334  164.2833 C.ar    1  UNL1        0.1933
     23 N         144.0009  140.1848  164.5522 N.ar    1  UNL1       -0.1221
     24 N         143.2089  140.2743  165.8229 N.ar    1  UNL1       -0.1266
     25 C         143.3184  141.6784  166.3394 C.ar    1  UNL1        0.1862
     26 N         144.1781  142.4565  165.3879 N.ar    1  UNL1       -0.2872
     27 C         144.5506  143.9037  165.5181 C.3     1  UNL1        0.1340
     28 C         142.6802  142.2108  167.5881 C.ar    1  UNL1        0.1362
     29 C         143.5043  142.4091  168.8256 C.ar    1  UNL1        0.1211
     30 N         142.8661  142.9416  170.0743 N.ar    1  UNL1       -0.2390
     31 C         141.4038  143.2756  170.0855 C.ar    1  UNL1        0.1195
     32 C         140.5797  143.0772  168.8479 C.ar    1  UNL1        0.1196
     33 N         141.2178  142.5448  167.5992 N.ar    1  UNL1       -0.2375
@<TRIPOS>BOND
     1    16    17    1
     2    17     9    1
     3     9    10   ar
     4    10    11   ar
     5    11     1    1
     6     1     2    1
     7     2     3    1
     8     3     4    1
     9     4     5    1
    10     5     6    1
    11     6    18    1
    12    18    19    1
    13    19    20    1
    14    20    21    1
    15    21    22    1
    16    22    23   ar
    17    23    24   ar
    18    24    25   ar
    19    25    28    1
    20    28    29   ar
    21    29    30   ar
    22    30    31   ar
    23    31    32   ar
    24    32    33   ar
    25    25    26   ar
    26    26    27    1
    27     6     7    1
    28     7     8    1
    29    11    12   ar
    30    12    13   ar
    31    13    14   ar
    32    14    15    1
    33    14     9   ar
    34     8     1    1
    35     8     4    1
    36    26    22   ar
    37    33    28   ar
@<TRIPOS>MOLECULE
*****
 33 37 0 0 0
SMALL
GASTEIGER

@<TRIPOS>ATOM
      1 N         140.5613  142.7702  164.9464 N.pl3   1  UNL1       -0.3076
      2 C         139.6093  143.4763  165.8657 C.3     1  UNL1        0.0909
      3 C         139.0761  144.6793  165.1456 C.3     1  UNL1        0.0245
      4 C         139.6985  144.7166  163.7813 C.3     1  UNL1        0.0372
      5 C         139.7536  145.4831  162.4931 C.3     1  UNL1        0.0738
      6 N         140.7056  144.7769  161.5740 N.3     1  UNL1       -0.2712
      7 C         141.2389  143.5740  162.2940 C.3     1  UNL1        0.0921
      8 C         140.6165  143.5367  163.6582 C.3     1  UNL1        0.0901
      9 C         142.9079  139.5995  164.5090 C.ar    1  UNL1        0.1672
     10 C         142.1449  140.8523  164.1952 C.ar    1  UNL1        0.0537
     11 C         141.3243  141.5174  165.2603 C.ar    1  UNL1        0.0510
     12 C         141.2667  140.9297  166.6391 C.ar    1  UNL1        0.0170
     13 C         142.0298  139.6769  166.9529 C.ar    1  UNL1        0.0340
     14 C         142.8503  139.0119  165.8878 C.ar    1  UNL1        0.1739
     15 F         143.6133  137.7591  166.2017 F       1  UNL1       -0.2010
     16 C         143.0515  138.2085  162.3194 C.3     1  UNL1        0.2526
     17 O         143.7284  138.9345  163.4439 O.3     1  UNL1       -0.4691
     18 C         141.0618  145.1995  160.1795 C.3     1  UNL1        0.0731
     19 C         141.0969  144.1857  159.0745 C.3     1  UNL1        0.0294
     20 C         139.8557  143.8943  158.2843 C.3     1  UNL1        0.0666
     21 S         139.0943  142.6245  158.5251 S.3     1  UNL1       -0.0756
     22 C         138.6840  142.2486  159.9181 C.ar    1  UNL1        0.1933
     23 N         137.7392  143.0146  160.7959 N.ar    1  UNL1       -0.1221
     24 N         137.6177  142.2802  162.0982 N.ar    1  UNL1       -0.1266
     25 C         138.4875  141.0603  162.0252 C.ar    1  UNL1        0.1862
     26 N         139.1465  141.0408  160.6778 N.ar    1  UNL1       -0.2872
     27 C         140.1005  139.9968  160.1780 C.3     1  UNL1        0.1340
     28 C         138.6669  140.0392  163.1093 C.ar    1  UNL1        0.1362
     29 C         138.0250  140.2470  164.4489 C.ar    1  UNL1        0.1211
     30 N         138.2044  139.2258  165.5329 N.ar    1  UNL1       -0.2390
     31 C         139.0257  137.9970  165.2773 C.ar    1  UNL1        0.1195
     32 C         139.6677  137.7892  163.9376 C.ar    1  UNL1        0.1196
     33 N         139.4883  138.8103  162.8536 N.ar    1  UNL1       -0.2375
@<TRIPOS>BOND
     1    16    17    1
     2    17     9    1
     3     9    10   ar
     4    10    11   ar
     5    11     1    1
     6     1     2    1
     7     2     3    1
     8     3     4    1
     9     4     5    1
    10     5     6    1
    11     6    18    1
    12    18    19    1
    13    19    20    1
    14    20    21    1
    15    21    22    1
    16    22    23   ar
    17    23    24   ar
    18    24    25   ar
    19    25    28    1
    20    28    29   ar
    21    29    30   ar
    22    30    31   ar
    23    31    32   ar
    24    32    33   ar
    25    25    26   ar
    26    26    27    1
    27     6     7    1
    28     7     8    1
    29    11    12   ar
    30    12    13   ar
    31    13    14   ar
    32    14    15    1
    33    14     9   ar
    34     8     1    1
    35     8     4    1
    36    26    22   ar
    37    33    28   ar
@<TRIPOS>MOLECULE
*****
 33 37 0 0 0
SMALL
GASTEIGER

@<TRIPOS>ATOM
      1 N         143.3010  142.0315  162.2619 N.pl3   1  UNL1       -0.3076
      2 C         144.7022  142.2792  162.7365 C.3     1  UNL1        0.0909
      3 C         145.1268  141.1015  163.5628 C.3     1  UNL1        0.0245
      4 C         143.9880  140.1259  163.5988 C.3     1  UNL1        0.0372
      5 C         143.5465  138.7950  164.1318 C.3     1  UNL1        0.0738
      6 N         142.1454  138.5473  163.6571 N.3     1  UNL1       -0.2712
      7 C         141.7208  139.7250  162.8309 C.3     1  UNL1        0.0921
      8 C         142.8596  140.7006  162.7948 C.3     1  UNL1        0.0901
      9 C         140.4225  144.5032  161.0980 C.ar    1  UNL1        0.1672
     10 C         141.2390  143.5819  161.9550 C.ar    1  UNL1        0.0537
     11 C         142.4846  142.9528  161.4048 C.ar    1  UNL1        0.0510
     12 C         142.9137  143.2450  159.9976 C.ar    1  UNL1        0.0170
     13 C         142.0972  144.1663  159.1405 C.ar    1  UNL1        0.0340
     14 C         140.8516  144.7954  159.6907 C.ar    1  UNL1        0.1739
     15 F         140.0351  145.7167  158.8336 F       1  UNL1       -0.2010
     16 C         138.6233  144.6732  162.9646 C.3     1  UNL1        0.2526
     17 O         139.1769  145.1322  161.6482 O.3     1  UNL1       -0.4691
     18 C         141.3146  137.3347  163.9562 C.3     1  UNL1        0.0731
     19 C         140.0464  137.4706  164.7456 C.3     1  UNL1        0.0294
     20 C         138.8893  138.2390  164.1795 C.3     1  UNL1        0.0666
     21 S         138.3225  139.4052  164.9338 S.3     1  UNL1       -0.0756
     22 C         138.8118  139.7123  166.3181 C.ar    1  UNL1        0.1933
     23 N         138.3292  139.0724  167.5860 N.ar    1  UNL1       -0.1221
     24 N         139.0887  139.6779  168.7291 N.ar    1  UNL1       -0.1266
     25 C         140.0407  140.6920  168.1676 C.ar    1  UNL1        0.1862
     26 N         139.8695  140.7133  166.6776 N.ar    1  UNL1       -0.2872
     27 C         140.6238  141.5829  165.7158 C.3     1  UNL1        0.1340
     28 C         140.9961  141.5366  168.9575 C.ar    1  UNL1        0.1362
     29 C         140.5361  142.8361  169.5486 C.ar    1  UNL1        0.1211
     30 N         141.4916  143.6807  170.3385 N.ar    1  UNL1       -0.2390
     31 C         142.9071  143.2256  170.5372 C.ar    1  UNL1        0.1195
     32 C         143.3670  141.9260  169.9461 C.ar    1  UNL1        0.1196
     33 N         142.4116  141.0814  169.1562 N.ar    1  UNL1       -0.2375
@<TRIPOS>BOND
     1    16    17    1
     2    17     9    1
     3     9    10   ar
     4    10    11   ar
     5    11     1    1
     6     1     2    1
     7     2     3    1
     8     3     4    1
     9     4     5    1
    10     5     6    1
    11     6    18    1
    12    18    19    1
    13    19    20    1
    14    20    21    1
    15    21    22    1
    16    22    23   ar
    17    23    24   ar
    18    24    25   ar
    19    25    28    1
    20    28    29   ar
    21    29    30   ar
    22    30    31   ar
    23    31    32   ar
    24    32    33   ar
    25    25    26   ar
    26    26    27    1
    27     6     7    1
    28     7     8    1
    29    11    12   ar
    30    12    13   ar
    31    13    14   ar
    32    14    15    1
    33    14     9   ar
    34     8     1    1
    35     8     4    1
    36    26    22   ar
    37    33    28   ar
@<TRIPOS>MOLECULE
*****
 33 37 0 0 0
SMALL
GASTEIGER

@<TRIPOS>ATOM
      1 N         141.3458  142.1285  165.4403 N.pl3   1  UNL1       -0.3076
      2 C         142.7943  142.1378  165.8300 C.3     1  UNL1        0.0909
      3 C         143.4677  143.2517  165.0845 C.3     1  UNL1        0.0245
      4 C         142.4354  143.9308  164.2340 C.3     1  UNL1        0.0372
      5 C         142.2136  145.0389  163.2477 C.3     1  UNL1        0.0738
      6 N         140.7652  145.0295  162.8580 N.3     1  UNL1       -0.2712
      7 C         140.0918  143.9157  163.6034 C.3     1  UNL1        0.0921
      8 C         141.1240  143.2366  164.4539 C.3     1  UNL1        0.0901
      9 C         139.1990  139.8891  167.9156 C.ar    1  UNL1        0.1672
     10 C         140.2425  140.8397  167.4079 C.ar    1  UNL1        0.0537
     11 C         140.3023  141.1780  165.9478 C.ar    1  UNL1        0.0510
     12 C         139.3186  140.5657  164.9952 C.ar    1  UNL1        0.0170
     13 C         138.2751  139.6152  165.5029 C.ar    1  UNL1        0.0340
     14 C         138.2153  139.2769  166.9630 C.ar    1  UNL1        0.1739
     15 F         137.1718  138.3263  167.4705 F       1  UNL1       -0.2010
     16 C         139.8883  140.3871  170.3706 C.3     1  UNL1        0.2526
     17 O         139.1393  139.5509  169.3757 O.3     1  UNL1       -0.4691
     18 C         140.1060  145.9691  161.8923 C.3     1  UNL1        0.0731
     19 C         140.1324  145.6738  160.4219 C.3     1  UNL1        0.0294
     20 C         141.3267  145.0003  159.8136 C.3     1  UNL1        0.0666
     21 S         141.2654  143.5451  159.4549 S.3     1  UNL1       -0.0756
     22 C         141.8795  142.5221  160.3639 C.ar    1  UNL1        0.1933
     23 N         143.3239  142.4503  160.7621 N.ar    1  UNL1       -0.1221
     24 N         143.4943  141.2751  161.6786 N.ar    1  UNL1       -0.1266
     25 C         142.1551  140.6206  161.8468 C.ar    1  UNL1        0.1862
     26 N         141.1572  141.3913  161.0343 N.ar    1  UNL1       -0.2872
     27 C         139.6938  141.0849  160.9134 C.3     1  UNL1        0.1340
     28 C         141.8648  139.4082  162.6811 C.ar    1  UNL1        0.1362
     29 C         140.9322  138.3511  162.1688 C.ar    1  UNL1        0.1211
     30 N         140.6419  137.1387  163.0031 N.ar    1  UNL1       -0.2390
     31 C         141.2844  136.9836  164.3497 C.ar    1  UNL1        0.1195
     32 C         142.2171  138.0408  164.8620 C.ar    1  UNL1        0.1196
     33 N         142.5074  139.2532  164.0277 N.ar    1  UNL1       -0.2375
@<TRIPOS>BOND
     1    16    17    1
     2    17     9    1
     3     9    10   ar
     4    10    11   ar
     5    11     1    1
     6     1     2    1
     7     2     3    1
     8     3     4    1
     9     4     5    1
    10     5     6    1
    11     6    18    1
    12    18    19    1
    13    19    20    1
    14    20    21    1
    15    21    22    1
    16    22    23   ar
    17    23    24   ar
    18    24    25   ar
    19    25    28    1
    20    28    29   ar
    21    29    30   ar
    22    30    31   ar
    23    31    32   ar
    24    32    33   ar
    25    25    26   ar
    26    26    27    1
    27     6     7    1
    28     7     8    1
    29    11    12   ar
    30    12    13   ar
    31    13    14   ar
    32    14    15    1
    33    14     9   ar
    34     8     1    1
    35     8     4    1
    36    26    22   ar
    37    33    28   ar
@<TRIPOS>MOLECULE
*****
 33 37 0 0 0
SMALL
GASTEIGER

@<TRIPOS>ATOM
      1 N         139.3658  139.5223  161.9215 N.pl3   1  UNL1       -0.3076
      2 C         138.0034  138.9355  161.6990 C.3     1  UNL1        0.0909
      3 C         137.3389  139.7103  160.5998 C.3     1  UNL1        0.0245
      4 C         138.2906  140.7760  160.1431 C.3     1  UNL1        0.0372
      5 C         138.4681  141.9134  159.1815 C.3     1  UNL1        0.0738
      6 N         139.8304  142.5002  159.4041 N.3     1  UNL1       -0.2712
      7 C         140.4949  141.7255  160.5031 C.3     1  UNL1        0.0921
      8 C         139.5433  140.6598  160.9599 C.3     1  UNL1        0.0901
      9 C         142.5456  139.4610  164.2954 C.ar    1  UNL1        0.1672
     10 C         141.5375  139.9293  163.2881 C.ar    1  UNL1        0.0537
     11 C         140.3737  139.0539  162.9288 C.ar    1  UNL1        0.0510
     12 C         140.2179  137.7100  163.5767 C.ar    1  UNL1        0.0170
     13 C         141.2259  137.2417  164.5840 C.ar    1  UNL1        0.0340
     14 C         142.3898  138.1171  164.9433 C.ar    1  UNL1        0.1739
     15 F         143.3977  137.6487  165.9506 F       1  UNL1       -0.2010
     16 C         145.0980  139.9433  164.2460 C.3     1  UNL1        0.2526
     17 O         143.7093  140.3365  164.6547 O.3     1  UNL1       -0.4691
     18 C         140.4240  143.6585  158.6584 C.3     1  UNL1        0.0731
     19 C         140.3742  145.0360  159.2498 C.3     1  UNL1        0.0294
     20 C         140.8966  145.2768  160.6351 C.3     1  UNL1        0.0666
     21 S         139.9445  145.5836  161.7529 S.3     1  UNL1       -0.0756
     22 C         139.2341  144.4679  162.4604 C.ar    1  UNL1        0.1933
     23 N         137.8431  143.9858  162.1729 N.ar    1  UNL1       -0.1221
     24 N         137.5393  142.8584  163.1145 N.ar    1  UNL1       -0.1266
     25 C         138.7425  142.6436  163.9839 C.ar    1  UNL1        0.1862
     26 N         139.7900  143.6383  163.5797 N.ar    1  UNL1       -0.2872
     27 C         141.1539  143.7788  164.1880 C.3     1  UNL1        0.1340
     28 C         138.8751  141.6147  165.0674 C.ar    1  UNL1        0.1362
     29 C         139.8634  141.8175  166.1773 C.ar    1  UNL1        0.1211
     30 N         139.9960  140.7886  167.2608 N.ar    1  UNL1       -0.2390
     31 C         139.1402  139.5569  167.2342 C.ar    1  UNL1        0.1195
     32 C         138.1519  139.3542  166.1242 C.ar    1  UNL1        0.1196
     33 N         138.0193  140.3830  165.0408 N.ar    1  UNL1       -0.2375
@<TRIPOS>BOND
     1    16    17    1
     2    17     9    1
     3     9    10   ar
     4    10    11   ar
     5    11     1    1
     6     1     2    1
     7     2     3    1
     8     3     4    1
     9     4     5    1
    10     5     6    1
    11     6    18    1
    12    18    19    1
    13    19    20    1
    14    20    21    1
    15    21    22    1
    16    22    23   ar
    17    23    24   ar
    18    24    25   ar
    19    25    28    1
    20    28    29   ar
    21    29    30   ar
    22    30    31   ar
    23    31    32   ar
    24    32    33   ar
    25    25    26   ar
    26    26    27    1
    27     6     7    1
    28     7     8    1
    29    11    12   ar
    30    12    13   ar
    31    13    14   ar
    32    14    15    1
    33    14     9   ar
    34     8     1    1
    35     8     4    1
    36    26    22   ar
    37    33    28   ar
@<TRIPOS>MOLECULE
*****
 33 37 0 0 0
SMALL
GASTEIGER

@<TRIPOS>ATOM
      1 N         141.8896  142.3792  166.5208 N.pl3   1  UNL1       -0.3076
      2 C         143.3888  142.3567  166.5645 C.3     1  UNL1        0.0909
      3 C         143.8986  143.0934  165.3614 C.3     1  UNL1        0.0245
      4 C         142.7145  143.5710  164.5741 C.3     1  UNL1        0.0372
      5 C         142.2978  144.3215  163.3440 C.3     1  UNL1        0.0738
      6 N         140.7987  144.3439  163.3004 N.3     1  UNL1       -0.2712
      7 C         140.2888  143.6073  164.5034 C.3     1  UNL1        0.0921
      8 C         141.4729  143.1296  165.2907 C.3     1  UNL1        0.0901
      9 C         139.1642  139.9945  168.1444 C.ar    1  UNL1        0.1672
     10 C         140.0851  140.6139  167.1352 C.ar    1  UNL1        0.0537
     11 C         140.9688  141.7599  167.5300 C.ar    1  UNL1        0.0510
     12 C         140.9317  142.2865  168.9340 C.ar    1  UNL1        0.0170
     13 C         140.0108  141.6671  169.9432 C.ar    1  UNL1        0.0340
     14 C         139.1271  140.5212  169.5484 C.ar    1  UNL1        0.1739
     15 F         138.2062  139.9018  170.5576 F       1  UNL1       -0.2010
     16 C         138.0738  138.5260  166.2993 C.3     1  UNL1        0.2526
     17 O         138.2805  138.8486  167.7495 O.3     1  UNL1       -0.4691
     18 C         139.9571  144.9895  162.2398 C.3     1  UNL1        0.0731
     19 C         140.5730  145.3832  160.9300 C.3     1  UNL1        0.0294
     20 C         140.2448  144.6130  159.6853 C.3     1  UNL1        0.0666
     21 S         141.2133  143.5981  159.1541 S.3     1  UNL1       -0.0756
     22 C         141.8524  142.6117  160.0861 C.ar    1  UNL1        0.1933
     23 N         143.3198  142.4937  160.3739 N.ar    1  UNL1       -0.1221
     24 N         143.5106  141.3792  161.3596 N.ar    1  UNL1       -0.1266
     25 C         142.1612  140.8084  161.6809 C.ar    1  UNL1        0.1862
     26 N         141.1364  141.5702  160.8938 N.ar    1  UNL1       -0.2872
     27 C         139.6555  141.3322  160.9114 C.3     1  UNL1        0.1340
     28 C         141.8851  139.6749  162.6237 C.ar    1  UNL1        0.1362
     29 C         142.3272  139.7646  164.0542 C.ar    1  UNL1        0.1211
     30 N         142.0510  138.6310  164.9970 N.ar    1  UNL1       -0.2390
     31 C         141.3327  137.4079  164.5093 C.ar    1  UNL1        0.1195
     32 C         140.8905  137.3182  163.0787 C.ar    1  UNL1        0.1196
     33 N         141.1666  138.4517  162.1359 N.ar    1  UNL1       -0.2375
@<TRIPOS>BOND
     1    16    17    1
     2    17     9    1
     3     9    10   ar
     4    10    11   ar
     5    11     1    1
     6     1     2    1
     7     2     3    1
     8     3     4    1
     9     4     5    1
    10     5     6    1
    11     6    18    1
    12    18    19    1
    13    19    20    1
    14    20    21    1
    15    21    22    1
    16    22    23   ar
    17    23    24   ar
    18    24    25   ar
    19    25    28    1
    20    28    29   ar
    21    29    30   ar
    22    30    31   ar
    23    31    32   ar
    24    32    33   ar
    25    25    26   ar
    26    26    27    1
    27     6     7    1
    28     7     8    1
    29    11    12   ar
    30    12    13   ar
    31    13    14   ar
    32    14    15    1
    33    14     9   ar
    34     8     1    1
    35     8     4    1
    36    26    22   ar
    37    33    28   ar
@<TRIPOS>MOLECULE
*****
 33 37 0 0 0
SMALL
GASTEIGER

@<TRIPOS>ATOM
      1 N         142.4167  139.4803  166.0322 N.pl3   1  UNL1       -0.3076
      2 C         142.1106  138.1910  165.3293 C.3     1  UNL1        0.0909
      3 C         142.5843  138.3126  163.9112 C.3     1  UNL1        0.0245
      4 C         143.1830  139.6769  163.7378 C.3     1  UNL1        0.0372
      5 C         143.8458  140.5953  162.7542 C.3     1  UNL1        0.0738
      6 N         144.1518  141.8844  163.4572 N.3     1  UNL1       -0.2712
      7 C         143.6782  141.7630  164.8752 C.3     1  UNL1        0.0921
      8 C         143.0794  140.3986  165.0487 C.3     1  UNL1        0.0901
      9 C         140.8692  141.2296  169.2409 C.ar    1  UNL1        0.1672
     10 C         141.1728  140.9140  167.8062 C.ar    1  UNL1        0.0537
     11 C         142.1132  139.7958  167.4669 C.ar    1  UNL1        0.0510
     12 C         142.7503  138.9932  168.5624 C.ar    1  UNL1        0.0170
     13 C         142.4468  139.3088  169.9971 C.ar    1  UNL1        0.0340
     14 C         141.5063  140.4270  170.3364 C.ar    1  UNL1        0.1739
     15 F         141.2028  140.7426  171.7711 F       1  UNL1       -0.2010
     16 C         140.4457  143.7502  169.7071 C.3     1  UNL1        0.2526
     17 O         139.9288  142.3478  169.5801 O.3     1  UNL1       -0.4691
     18 C         144.8150  143.0845  162.8489 C.3     1  UNL1        0.0731
     19 C         144.0037  144.3013  162.5156 C.3     1  UNL1        0.0294
     20 C         143.3424  145.0849  163.6104 C.3     1  UNL1        0.0666
     21 S         141.8527  145.2607  163.6124 S.3     1  UNL1       -0.0756
     22 C         140.9591  144.0847  163.8740 C.ar    1  UNL1        0.1933
     23 N         140.3206  143.7371  165.1860 N.ar    1  UNL1       -0.1221
     24 N         139.5140  142.4873  164.9923 N.ar    1  UNL1       -0.1266
     25 C         139.6540  142.0625  163.5606 C.ar    1  UNL1        0.1862
     26 N         140.5472  143.0497  162.8694 N.ar    1  UNL1       -0.2872
     27 C         140.9565  143.0090  161.4269 C.3     1  UNL1        0.1340
     28 C         139.0135  140.8613  162.9306 C.ar    1  UNL1        0.1362
     29 C         139.2126  139.5024  163.5334 C.ar    1  UNL1        0.1211
     30 N         138.5720  138.3012  162.9033 N.ar    1  UNL1       -0.2390
     31 C         137.7322  138.4591  161.6705 C.ar    1  UNL1        0.1195
     32 C         137.5330  139.8182  161.0677 C.ar    1  UNL1        0.1196
     33 N         138.1736  141.0193  161.6977 N.ar    1  UNL1       -0.2375
@<TRIPOS>BOND
     1    16    17    1
     2    17     9    1
     3     9    10   ar
     4    10    11   ar
     5    11     1    1
     6     1     2    1
     7     2     3    1
     8     3     4    1
     9     4     5    1
    10     5     6    1
    11     6    18    1
    12    18    19    1
    13    19    20    1
    14    20    21    1
    15    21    22    1
    16    22    23   ar
    17    23    24   ar
    18    24    25   ar
    19    25    28    1
    20    28    29   ar
    21    29    30   ar
    22    30    31   ar
    23    31    32   ar
    24    32    33   ar
    25    25    26   ar
    26    26    27    1
    27     6     7    1
    28     7     8    1
    29    11    12   ar
    30    12    13   ar
    31    13    14   ar
    32    14    15    1
    33    14     9   ar
    34     8     1    1
    35     8     4    1
    36    26    22   ar
    37    33    28   ar
@<TRIPOS>MOLECULE
*****
 33 37 0 0 0
SMALL
GASTEIGER

@<TRIPOS>ATOM
      1 N         140.3957  143.0093  165.3630 N.pl3   1  UNL1       -0.3076
      2 C         139.3573  143.7591  166.1438 C.3     1  UNL1        0.0909
      3 C         138.8419  144.8718  165.2801 C.3     1  UNL1        0.0245
      4 C         139.5616  144.8097  163.9655 C.3     1  UNL1        0.0372
      5 C         139.6879  145.4591  162.6192 C.3     1  UNL1        0.0738
      6 N         140.7262  144.7092  161.8386 N.3     1  UNL1       -0.2712
      7 C         141.2417  143.5965  162.7022 C.3     1  UNL1        0.0921
      8 C         140.5220  143.6586  164.0168 C.3     1  UNL1        0.0901
      9 C         141.7708  140.1366  167.7311 C.ar    1  UNL1        0.1672
     10 C         140.9949  141.3269  167.2500 C.ar    1  UNL1        0.0537
     11 C         141.1716  141.8190  165.8441 C.ar    1  UNL1        0.0510
     12 C         142.1241  141.1210  164.9192 C.ar    1  UNL1        0.0170
     13 C         142.9000  139.9308  165.4003 C.ar    1  UNL1        0.0340
     14 C         142.7234  139.4386  166.8062 C.ar    1  UNL1        0.1739
     15 F         143.4992  138.2484  167.2872 F       1  UNL1       -0.2010
     16 C         140.5406  140.2497  170.0166 C.3     1  UNL1        0.2526
     17 O         141.5941  139.6445  169.1370 O.3     1  UNL1       -0.4691
     18 C         141.1710  145.0180  160.4397 C.3     1  UNL1        0.0731
     19 C         141.2978  143.9140  159.4321 C.3     1  UNL1        0.0294
     20 C         140.2121  143.6930  158.4211 C.3     1  UNL1        0.0666
     21 S         139.2027  142.6032  158.6305 S.3     1  UNL1       -0.0756
     22 C         138.7372  142.2684  160.0166 C.ar    1  UNL1        0.1933
     23 N         137.7480  143.0517  160.8277 N.ar    1  UNL1       -0.1221
     24 N         137.5786  142.3590  162.1474 N.ar    1  UNL1       -0.1266
     25 C         138.4632  141.1476  162.1519 C.ar    1  UNL1        0.1862
     26 N         139.1793  141.0917  160.8350 N.ar    1  UNL1       -0.2872
     27 C         140.1644  140.0430  160.4110 C.3     1  UNL1        0.1340
     28 C         138.6066  140.1647  163.2758 C.ar    1  UNL1        0.1362
     29 C         138.0572  140.4916  164.6327 C.ar    1  UNL1        0.1211
     30 N         138.2006  139.5087  165.7567 N.ar    1  UNL1       -0.2390
     31 C         138.8934  138.1988  165.5238 C.ar    1  UNL1        0.1195
     32 C         139.4428  137.8718  164.1668 C.ar    1  UNL1        0.1196
     33 N         139.2994  138.8547  163.0428 N.ar    1  UNL1       -0.2375
@<TRIPOS>BOND
     1    16    17    1
     2    17     9    1
     3     9    10   ar
     4    10    11   ar
     5    11     1    1
     6     1     2    1
     7     2     3    1
     8     3     4    1
     9     4     5    1
    10     5     6    1
    11     6    18    1
    12    18    19    1
    13    19    20    1
    14    20    21    1
    15    21    22    1
    16    22    23   ar
    17    23    24   ar
    18    24    25   ar
    19    25    28    1
    20    28    29   ar
    21    29    30   ar
    22    30    31   ar
    23    31    32   ar
    24    32    33   ar
    25    25    26   ar
    26    26    27    1
    27     6     7    1
    28     7     8    1
    29    11    12   ar
    30    12    13   ar
    31    13    14   ar
    32    14    15    1
    33    14     9   ar
    34     8     1    1
    35     8     4    1
    36    26    22   ar
    37    33    28   ar
@<TRIPOS>MOLECULE
*****
 33 37 0 0 0
SMALL
GASTEIGER

@<TRIPOS>ATOM
      1 N         139.5438  139.3898  166.1577 N.pl3   1  UNL1       -0.3076
      2 C         138.3565  138.4764  166.2343 C.3     1  UNL1        0.0909
      3 C         138.4944  137.4454  165.1536 C.3     1  UNL1        0.0245
      4 C         139.7670  137.7216  164.4091 C.3     1  UNL1        0.0372
      5 C         140.6388  137.2551  163.2810 C.3     1  UNL1        0.0738
      6 N         141.8260  138.1685  163.2045 N.3     1  UNL1       -0.2712
      7 C         141.6882  139.1995  164.2852 C.3     1  UNL1        0.0921
      8 C         140.4156  138.9233  165.0297 C.3     1  UNL1        0.0901
      9 C         140.0841  141.5602  169.4361 C.ar    1  UNL1        0.1672
     10 C         139.8157  140.3864  168.5416 C.ar    1  UNL1        0.0537
     11 C         139.8123  140.5637  167.0521 C.ar    1  UNL1        0.0510
     12 C         140.0775  141.9148  166.4571 C.ar    1  UNL1        0.0170
     13 C         140.3460  143.0886  167.3516 C.ar    1  UNL1        0.0340
     14 C         140.3493  142.9113  168.8411 C.ar    1  UNL1        0.1739
     15 F         140.6178  144.0852  169.7355 F       1  UNL1       -0.2010
     16 C         141.3490  140.9804  171.6302 C.3     1  UNL1        0.2526
     17 O         140.0874  141.3828  170.9255 O.3     1  UNL1       -0.4691
     18 C         142.9534  138.0685  162.2201 C.3     1  UNL1        0.0731
     19 C         142.6646  137.7891  160.7749 C.3     1  UNL1        0.0294
     20 C         143.1248  138.7496  159.7187 C.3     1  UNL1        0.0666
     21 S         142.1186  139.4841  158.8832 S.3     1  UNL1       -0.0756
     22 C         140.8368  139.9608  159.4993 C.ar    1  UNL1        0.1933
     23 N         139.4543  139.5485  159.0887 N.ar    1  UNL1       -0.1221
     24 N         138.4754  140.2663  159.9699 N.ar    1  UNL1       -0.1266
     25 C         139.2530  141.1223  160.9253 C.ar    1  UNL1        0.1862
     26 N         140.7124  140.9335  160.6344 N.ar    1  UNL1       -0.2872
     27 C         141.8480  141.6003  161.3526 C.3     1  UNL1        0.1340
     28 C         138.6730  142.0111  161.9853 C.ar    1  UNL1        0.1362
     29 C         138.1316  141.4145  163.2505 C.ar    1  UNL1        0.1211
     30 N         137.5516  142.3034  164.3106 N.ar    1  UNL1       -0.2390
     31 C         137.5132  143.7888  164.1054 C.ar    1  UNL1        0.1195
     32 C         138.0547  144.3854  162.8401 C.ar    1  UNL1        0.1196
     33 N         138.6346  143.4966  161.7801 N.ar    1  UNL1       -0.2375
@<TRIPOS>BOND
     1    16    17    1
     2    17     9    1
     3     9    10   ar
     4    10    11   ar
     5    11     1    1
     6     1     2    1
     7     2     3    1
     8     3     4    1
     9     4     5    1
    10     5     6    1
    11     6    18    1
    12    18    19    1
    13    19    20    1
    14    20    21    1
    15    21    22    1
    16    22    23   ar
    17    23    24   ar
    18    24    25   ar
    19    25    28    1
    20    28    29   ar
    21    29    30   ar
    22    30    31   ar
    23    31    32   ar
    24    32    33   ar
    25    25    26   ar
    26    26    27    1
    27     6     7    1
    28     7     8    1
    29    11    12   ar
    30    12    13   ar
    31    13    14   ar
    32    14    15    1
    33    14     9   ar
    34     8     1    1
    35     8     4    1
    36    26    22   ar
    37    33    28   ar
