@<TRIPOS>MOLECULE
*****
 41 44 0 0 0
SMALL
GASTEIGER

@<TRIPOS>ATOM
      1 C         141.8132  141.6550  164.6884 C.3     1  UNL1        0.0800
      2 C         142.5763  141.9281  163.4261 C.ar    1  UNL1        0.0374
      3 C         141.8985  141.7897  162.0952 C.ar    1  UNL1        0.0023
      4 C         142.6615  142.0627  160.8330 C.ar    1  UNL1        0.0181
      5 C         141.9837  141.9243  159.5020 C.ar    1  UNL1        0.0082
      6 C         142.7468  142.1974  158.2397 C.ar    1  UNL1        0.0347
      7 BR        142.0690  142.0590  156.9088 Br      1  UNL1       -0.0490
      8 C         144.1876  142.6089  158.3085 C.ar    1  UNL1        0.0082
      9 C         144.8654  142.7473  159.6394 C.ar    1  UNL1        0.0197
     10 C         144.1024  142.4743  160.9017 C.ar    1  UNL1        0.0844
     11 N         144.7802  142.6127  162.2326 N.ar    1  UNL1       -0.2119
     12 C         144.0171  142.3396  163.4949 C.ar    1  UNL1        0.2211
     13 O         144.6949  142.4780  164.8258 O.3     1  UNL1       -0.4563
     14 C         144.7213  143.8079  165.5193 C.3     1  UNL1        0.2542
     15 C         142.3355  140.6578  165.6797 C.ar    1  UNL1        0.0180
     16 C         142.7350  139.2858  165.2237 C.ar    1  UNL1        0.0193
     17 C         143.2574  138.2885  166.2150 C.ar    1  UNL1        0.1019
     18 N         143.3801  138.6632  167.6622 N.ar    1  UNL1       -0.2082
     19 C         142.9805  140.0353  168.1182 C.ar    1  UNL1        0.2530
     20 C         142.4582  141.0326  167.1269 C.ar    1  UNL1        0.1894
     21 F         142.0586  142.4046  167.5829 F       1  UNL1       -0.1996
     22 O         143.1032  140.4101  169.5654 O.3     1  UNL1       -0.4546
     23 C         141.8967  140.3684  170.4559 C.3     1  UNL1        0.2543
     24 C         140.5278  142.3793  164.9593 C.3     1  UNL1        0.1162
     25 O         141.2563  143.6897  164.9126 O.3     1  UNL1       -0.3820
     26 H         140.6297  144.4137  165.0677 H       1  UNL1        0.2107
     27 C         138.5016  139.2626  166.3487 C.ar    1  UNL1        0.2272
     28 C         139.2301  140.5729  166.3020 C.ar    1  UNL1        0.0559
     29 C         139.7994  141.0689  165.0059 C.ar    1  UNL1        0.0117
     30 C         139.6401  140.2544  163.7565 C.ar    1  UNL1        0.0559
     31 C         138.9116  138.9440  163.8031 C.ar    1  UNL1        0.2272
     32 N         138.3424  138.4481  165.0992 N.ar    1  UNL1       -0.1767
     33 C         136.9094  137.6696  167.6439 C.3     1  UNL1        0.2542
     34 O         137.9324  138.7667  167.6449 O.3     1  UNL1       -0.4561
     35 O         138.7524  138.1295  162.5536 O.3     1  UNL1       -0.4561
     36 C         137.6183  138.4122  161.6135 C.3     1  UNL1        0.2542
     37 C         139.2425  143.1035  165.2302 C.3     1  UNL1        0.0491
     38 C         138.9422  144.3898  164.5194 C.3     1  UNL1        0.0750
     39 N         138.8545  144.4166  163.0222 N.3     1  UNL1       -0.2702
     40 C         138.1067  143.3385  162.2953 C.3     1  UNL1        0.0897
     41 C         139.5146  145.5215  162.2519 C.3     1  UNL1        0.0897
@<TRIPOS>BOND
     1    33    34    1
     2    34    27    1
     3    27    28   ar
     4    28    29   ar
     5    29    24    1
     6    24    25    1
     7    24    37    1
     8    37    38    1
     9    38    39    1
    10    39    40    1
    11    39    41    1
    12    24     1    1
    13     1     2    1
    14     2     3   ar
    15     3     4   ar
    16     4     5   ar
    17     5     6   ar
    18     6     7    1
    19     6     8   ar
    20     8     9   ar
    21     9    10   ar
    22    10    11   ar
    23    11    12   ar
    24    12    13    1
    25    13    14    1
    26     1    15    1
    27    15    16   ar
    28    16    17   ar
    29    17    18   ar
    30    18    19   ar
    31    19    22    1
    32    22    23    1
    33    19    20   ar
    34    20    21    1
    35    29    30   ar
    36    30    31   ar
    37    31    35    1
    38    35    36    1
    39    31    32   ar
    40    32    27   ar
    41    12     2   ar
    42    20    15   ar
    43    10     4   ar
    44    25    26    1
@<TRIPOS>MOLECULE
*****
 41 44 0 0 0
SMALL
GASTEIGER

@<TRIPOS>ATOM
      1 C         142.2072  140.9708  163.2019 C.3     1  UNL1        0.0800
      2 C         142.4458  141.3371  164.6368 C.ar    1  UNL1        0.0374
      3 C         141.6254  140.7011  165.7196 C.ar    1  UNL1        0.0023
      4 C         141.8640  141.0673  167.1545 C.ar    1  UNL1        0.0181
      5 C         141.0436  140.4313  168.2373 C.ar    1  UNL1        0.0082
      6 C         141.2822  140.7976  169.6722 C.ar    1  UNL1        0.0347
      7 BR        140.4618  140.1616  170.7550 Br      1  UNL1       -0.0490
      8 C         142.3412  141.7998  170.0243 C.ar    1  UNL1        0.0082
      9 C         143.1616  142.4358  168.9415 C.ar    1  UNL1        0.0197
     10 C         142.9230  142.0696  167.5066 C.ar    1  UNL1        0.0844
     11 N         143.7435  142.7056  166.4239 N.ar    1  UNL1       -0.2119
     12 C         143.5048  142.3393  164.9889 C.ar    1  UNL1        0.2211
     13 O         144.3252  142.9753  163.9061 O.3     1  UNL1       -0.4563
     14 C         144.0627  144.3961  163.5027 C.3     1  UNL1        0.2542
     15 C         141.4953  141.9276  162.2920 C.ar    1  UNL1        0.0180
     16 C         142.2044  142.4961  161.0988 C.ar    1  UNL1        0.0193
     17 C         141.4926  143.4530  160.1888 C.ar    1  UNL1        0.1019
     18 N         140.0717  143.8412  160.4722 N.ar    1  UNL1       -0.2082
     19 C         139.3626  143.2726  161.6656 C.ar    1  UNL1        0.2530
     20 C         140.0744  142.3158  162.5754 C.ar    1  UNL1        0.1894
     21 F         139.3654  141.7473  163.7687 F       1  UNL1       -0.1996
     22 O         137.9417  143.6608  161.9490 O.3     1  UNL1       -0.4546
     23 C         137.6000  144.3799  163.2203 C.3     1  UNL1        0.2543
     24 C         142.6804  139.6478  162.6769 C.3     1  UNL1        0.1162
     25 O         144.0916  140.1560  162.6682 O.3     1  UNL1       -0.3820
     26 H         144.6843  139.4589  162.3462 H       1  UNL1        0.2107
     27 C         139.2938  138.0053  163.9351 C.ar    1  UNL1        0.2272
     28 C         140.7051  138.5135  163.9264 C.ar    1  UNL1        0.0559
     29 C         141.2691  139.1396  162.6856 C.ar    1  UNL1        0.0117
     30 C         140.4219  139.2575  161.4534 C.ar    1  UNL1        0.0559
     31 C         139.0106  138.7493  161.4621 C.ar    1  UNL1        0.2272
     32 N         138.4466  138.1232  162.7030 N.ar    1  UNL1       -0.1767
     33 C         138.1288  138.2427  166.2452 C.3     1  UNL1        0.2542
     34 O         138.7298  137.3791  165.1761 O.3     1  UNL1       -0.4561
     35 O         138.1634  138.8672  160.2299 O.3     1  UNL1       -0.4561
     36 C         137.9563  140.2068  159.5875 C.3     1  UNL1        0.2542
     37 C         143.1536  138.3248  162.1519 C.3     1  UNL1        0.0491
     38 C         144.0483  138.2717  160.9491 C.3     1  UNL1        0.0750
     39 N         143.5359  138.7209  159.6128 N.3     1  UNL1       -0.2702
     40 C         142.7025  137.7936  158.7788 C.3     1  UNL1        0.0897
     41 C         143.8568  140.0973  159.1105 C.3     1  UNL1        0.0897
@<TRIPOS>BOND
     1    33    34    1
     2    34    27    1
     3    27    28   ar
     4    28    29   ar
     5    29    24    1
     6    24    25    1
     7    24    37    1
     8    37    38    1
     9    38    39    1
    10    39    40    1
    11    39    41    1
    12    24     1    1
    13     1     2    1
    14     2     3   ar
    15     3     4   ar
    16     4     5   ar
    17     5     6   ar
    18     6     7    1
    19     6     8   ar
    20     8     9   ar
    21     9    10   ar
    22    10    11   ar
    23    11    12   ar
    24    12    13    1
    25    13    14    1
    26     1    15    1
    27    15    16   ar
    28    16    17   ar
    29    17    18   ar
    30    18    19   ar
    31    19    22    1
    32    22    23    1
    33    19    20   ar
    34    20    21    1
    35    29    30   ar
    36    30    31   ar
    37    31    35    1
    38    35    36    1
    39    31    32   ar
    40    32    27   ar
    41    12     2   ar
    42    20    15   ar
    43    10     4   ar
    44    25    26    1
@<TRIPOS>MOLECULE
*****
 41 44 0 0 0
SMALL
GASTEIGER

@<TRIPOS>ATOM
      1 C         142.1550  140.9471  163.1238 C.3     1  UNL1        0.0800
      2 C         142.4100  141.3110  164.5565 C.ar    1  UNL1        0.0374
      3 C         141.5959  140.6800  165.6469 C.ar    1  UNL1        0.0023
      4 C         141.8509  141.0438  167.0796 C.ar    1  UNL1        0.0181
      5 C         141.0368  140.4128  168.1700 C.ar    1  UNL1        0.0082
      6 C         141.2918  140.7767  169.6027 C.ar    1  UNL1        0.0347
      7 BR        140.4777  140.1456  170.6932 Br      1  UNL1       -0.0490
      8 C         142.3609  141.7716  169.9450 C.ar    1  UNL1        0.0082
      9 C         143.1750  142.4027  168.8546 C.ar    1  UNL1        0.0197
     10 C         142.9200  142.0388  167.4219 C.ar    1  UNL1        0.0844
     11 N         143.7341  142.6699  166.3315 N.ar    1  UNL1       -0.2119
     12 C         143.4791  142.3060  164.8988 C.ar    1  UNL1        0.2211
     13 O         144.2932  142.9370  163.8084 O.3     1  UNL1       -0.4563
     14 C         144.0488  144.3654  163.4208 C.3     1  UNL1        0.2542
     15 C         141.4427  141.9100  162.2208 C.ar    1  UNL1        0.0180
     16 C         142.1404  142.4619  161.0131 C.ar    1  UNL1        0.0193
     17 C         141.4281  143.4248  160.1100 C.ar    1  UNL1        0.1019
     18 N         140.0181  143.8358  160.4147 N.ar    1  UNL1       -0.2082
     19 C         139.3203  143.2838  161.6225 C.ar    1  UNL1        0.2530
     20 C         140.0326  142.3210  162.5255 C.ar    1  UNL1        0.1894
     21 F         139.3349  141.7691  163.7331 F       1  UNL1       -0.1996
     22 O         137.9103  143.6948  161.9271 O.3     1  UNL1       -0.4546
     23 C         137.5957  144.3995  163.2135 C.3     1  UNL1        0.2543
     24 C         142.6123  139.6204  162.5942 C.3     1  UNL1        0.1162
     25 O         144.0326  140.1023  162.6132 O.3     1  UNL1       -0.3820
     26 H         144.6176  139.3973  162.2944 H       1  UNL1        0.2107
     27 C         138.9527  138.7848  161.3061 C.ar    1  UNL1        0.2272
     28 C         140.3730  139.2668  161.3251 C.ar    1  UNL1        0.0559
     29 C         141.1920  139.1384  162.5752 C.ar    1  UNL1        0.0117
     30 C         140.5906  138.5279  163.8063 C.ar    1  UNL1        0.0559
     31 C         139.1703  138.0460  163.7873 C.ar    1  UNL1        0.2272
     32 N         138.3513  138.1744  162.5373 N.ar    1  UNL1       -0.1767
     33 C         138.2502  140.1439  159.2063 C.3     1  UNL1        0.2542
     34 O         138.1337  138.9133  160.0560 O.3     1  UNL1       -0.4561
     35 O         138.5689  137.4355  165.0186 O.3     1  UNL1       -0.4561
     36 C         138.1937  138.3064  166.1808 C.3     1  UNL1        0.2542
     37 C         143.0696  138.2936  162.0646 C.3     1  UNL1        0.0491
     38 C         143.9898  138.2351  160.8814 C.3     1  UNL1        0.0750
     39 N         143.5162  138.7078  159.5389 N.3     1  UNL1       -0.2702
     40 C         142.6866  137.8044  158.6755 C.3     1  UNL1        0.0897
     41 C         143.8724  140.0838  159.0598 C.3     1  UNL1        0.0897
@<TRIPOS>BOND
     1    33    34    1
     2    34    27    1
     3    27    28   ar
     4    28    29   ar
     5    29    24    1
     6    24    25    1
     7    24    37    1
     8    37    38    1
     9    38    39    1
    10    39    40    1
    11    39    41    1
    12    24     1    1
    13     1     2    1
    14     2     3   ar
    15     3     4   ar
    16     4     5   ar
    17     5     6   ar
    18     6     7    1
    19     6     8   ar
    20     8     9   ar
    21     9    10   ar
    22    10    11   ar
    23    11    12   ar
    24    12    13    1
    25    13    14    1
    26     1    15    1
    27    15    16   ar
    28    16    17   ar
    29    17    18   ar
    30    18    19   ar
    31    19    22    1
    32    22    23    1
    33    19    20   ar
    34    20    21    1
    35    29    30   ar
    36    30    31   ar
    37    31    35    1
    38    35    36    1
    39    31    32   ar
    40    32    27   ar
    41    12     2   ar
    42    20    15   ar
    43    10     4   ar
    44    25    26    1
@<TRIPOS>MOLECULE
*****
 41 44 0 0 0
SMALL
GASTEIGER

@<TRIPOS>ATOM
      1 C         139.2603  140.6686  164.5657 C.3     1  UNL1        0.0800
      2 C         139.5035  140.6342  166.0455 C.ar    1  UNL1        0.0374
      3 C         140.5354  141.5348  166.6571 C.ar    1  UNL1        0.0023
      4 C         140.7786  141.5004  168.1368 C.ar    1  UNL1        0.0181
      5 C         141.8105  142.4011  168.7483 C.ar    1  UNL1        0.0082
      6 C         142.0537  142.3667  170.2281 C.ar    1  UNL1        0.0347
      7 BR        143.0856  143.2673  170.8397 Br      1  UNL1       -0.0490
      8 C         141.2651  141.4316  171.0963 C.ar    1  UNL1        0.0082
      9 C         140.2332  140.5309  170.4847 C.ar    1  UNL1        0.0197
     10 C         139.9900  140.5653  169.0050 C.ar    1  UNL1        0.0844
     11 N         138.9581  139.6647  168.3934 N.ar    1  UNL1       -0.2119
     12 C         138.7149  139.6991  166.9136 C.ar    1  UNL1        0.2211
     13 O         137.6830  138.7984  166.3020 O.3     1  UNL1       -0.4563
     14 C         137.6945  137.3296  166.6063 C.3     1  UNL1        0.2542
     15 C         139.0950  141.9835  163.8632 C.ar    1  UNL1        0.0180
     16 C         137.7234  142.4801  163.5139 C.ar    1  UNL1        0.0193
     17 C         137.5582  143.7951  162.8114 C.ar    1  UNL1        0.1019
     18 N         138.7646  144.6135  162.4581 N.ar    1  UNL1       -0.2082
     19 C         140.1363  144.1169  162.8074 C.ar    1  UNL1        0.2530
     20 C         140.3015  142.8019  163.5099 C.ar    1  UNL1        0.1894
     21 F         141.6731  142.3053  163.8591 F       1  UNL1       -0.1996
     22 O         141.3427  144.9352  162.4541 O.3     1  UNL1       -0.4546
     23 C         142.3575  144.3973  161.4893 C.3     1  UNL1        0.2543
     24 C         139.1822  139.3880  163.7885 C.3     1  UNL1        0.1162
     25 O         137.6902  139.5233  163.7153 O.3     1  UNL1       -0.3820
     26 H         137.3210  138.7718  163.2256 H       1  UNL1        0.2107
     27 C         143.0120  139.4878  162.7526 C.ar    1  UNL1        0.2272
     28 C         141.5199  139.6231  162.6794 C.ar    1  UNL1        0.0559
     29 C         140.6743  139.2527  163.8617 C.ar    1  UNL1        0.0117
     30 C         141.3209  138.7469  165.1171 C.ar    1  UNL1        0.0559
     31 C         142.8129  138.6116  165.1903 C.ar    1  UNL1        0.2272
     32 N         143.6585  138.9820  164.0081 N.ar    1  UNL1       -0.1767
     33 C         144.4795  141.2209  161.4905 C.3     1  UNL1        0.2542
     34 O         143.8576  139.8582  161.5703 O.3     1  UNL1       -0.4561
     35 O         143.4595  138.1058  166.4458 O.3     1  UNL1       -0.4561
     36 C         143.1470  138.7519  167.7630 C.3     1  UNL1        0.2542
     37 C         139.1042  138.1074  163.0113 C.3     1  UNL1        0.0491
     38 C         138.2466  138.0264  161.7833 C.3     1  UNL1        0.0750
     39 N         138.5319  138.9155  160.6093 N.3     1  UNL1       -0.2702
     40 C         137.7117  140.1517  160.3879 C.3     1  UNL1        0.0897
     41 C         139.6372  138.5683  159.6567 C.3     1  UNL1        0.0897
@<TRIPOS>BOND
     1    33    34    1
     2    34    27    1
     3    27    28   ar
     4    28    29   ar
     5    29    24    1
     6    24    25    1
     7    24    37    1
     8    37    38    1
     9    38    39    1
    10    39    40    1
    11    39    41    1
    12    24     1    1
    13     1     2    1
    14     2     3   ar
    15     3     4   ar
    16     4     5   ar
    17     5     6   ar
    18     6     7    1
    19     6     8   ar
    20     8     9   ar
    21     9    10   ar
    22    10    11   ar
    23    11    12   ar
    24    12    13    1
    25    13    14    1
    26     1    15    1
    27    15    16   ar
    28    16    17   ar
    29    17    18   ar
    30    18    19   ar
    31    19    22    1
    32    22    23    1
    33    19    20   ar
    34    20    21    1
    35    29    30   ar
    36    30    31   ar
    37    31    35    1
    38    35    36    1
    39    31    32   ar
    40    32    27   ar
    41    12     2   ar
    42    20    15   ar
    43    10     4   ar
    44    25    26    1
@<TRIPOS>MOLECULE
*****
 41 44 0 0 0
SMALL
GASTEIGER

@<TRIPOS>ATOM
      1 C         140.7975  140.7710  163.6827 C.3     1  UNL1        0.0800
      2 C         140.6196  140.7192  165.1712 C.ar    1  UNL1        0.0374
      3 C         141.4663  141.5832  166.0582 C.ar    1  UNL1        0.0023
      4 C         141.2885  141.5314  167.5467 C.ar    1  UNL1        0.0181
      5 C         142.1352  142.3954  168.4337 C.ar    1  UNL1        0.0082
      6 C         141.9574  142.3436  169.9222 C.ar    1  UNL1        0.0347
      7 BR        142.8041  143.2076  170.8092 Br      1  UNL1       -0.0490
      8 C         140.9329  141.4279  170.5238 C.ar    1  UNL1        0.0082
      9 C         140.0862  140.5639  169.6368 C.ar    1  UNL1        0.0197
     10 C         140.2640  140.6157  168.1483 C.ar    1  UNL1        0.0844
     11 N         139.4173  139.7517  167.2614 N.ar    1  UNL1       -0.2119
     12 C         139.5952  139.8035  165.7728 C.ar    1  UNL1        0.2211
     13 O         138.7485  138.9395  164.8858 O.3     1  UNL1       -0.4563
     14 C         138.6661  137.4626  165.1347 C.3     1  UNL1        0.2542
     15 C         139.8060  141.5106  162.8342 C.ar    1  UNL1        0.0180
     16 C         138.9793  140.7678  161.8269 C.ar    1  UNL1        0.0193
     17 C         137.9878  141.5075  160.9784 C.ar    1  UNL1        0.1019
     18 N         137.8232  142.9899  161.1371 N.ar    1  UNL1       -0.2082
     19 C         138.6500  143.7327  162.1445 C.ar    1  UNL1        0.2530
     20 C         139.6414  142.9931  162.9929 C.ar    1  UNL1        0.1894
     21 F         140.4682  143.7359  164.0002 F       1  UNL1       -0.1996
     22 O         138.4854  145.2152  162.3032 O.3     1  UNL1       -0.4546
     23 C         139.5815  146.1424  161.8685 C.3     1  UNL1        0.2543
     24 C         141.9667  140.0831  163.0427 C.3     1  UNL1        0.1162
     25 O         141.3740  138.7503  163.3922 O.3     1  UNL1       -0.3820
     26 H         141.9591  138.0436  163.0774 H       1  UNL1        0.2107
     27 C         143.7958  143.5860  163.4088 C.ar    1  UNL1        0.2272
     28 C         143.2030  142.2532  163.7584 C.ar    1  UNL1        0.0559
     29 C         142.5595  141.4159  162.6931 C.ar    1  UNL1        0.0117
     30 C         142.5088  141.9115  161.2783 C.ar    1  UNL1        0.0559
     31 C         143.1015  143.2443  160.9287 C.ar    1  UNL1        0.2272
     32 N         143.7451  144.0816  161.9940 N.ar    1  UNL1       -0.1767
     33 C         144.8135  143.8062  165.7891 C.3     1  UNL1        0.2542
     34 O         144.4393  144.4233  164.4742 O.3     1  UNL1       -0.4561
     35 O         143.0508  143.7399  159.5138 O.3     1  UNL1       -0.4561
     36 C         143.7534  142.9806  158.4276 C.3     1  UNL1        0.2542
     37 C         143.1360  139.3952  162.4027 C.3     1  UNL1        0.0491
     38 C         142.9078  138.2708  161.4365 C.3     1  UNL1        0.0750
     39 N         142.2745  138.5435  160.1044 N.3     1  UNL1       -0.2702
     40 C         143.1178  139.0070  158.9538 C.3     1  UNL1        0.0897
     41 C         140.7978  138.3526  159.9228 C.3     1  UNL1        0.0897
@<TRIPOS>BOND
     1    33    34    1
     2    34    27    1
     3    27    28   ar
     4    28    29   ar
     5    29    24    1
     6    24    25    1
     7    24    37    1
     8    37    38    1
     9    38    39    1
    10    39    40    1
    11    39    41    1
    12    24     1    1
    13     1     2    1
    14     2     3   ar
    15     3     4   ar
    16     4     5   ar
    17     5     6   ar
    18     6     7    1
    19     6     8   ar
    20     8     9   ar
    21     9    10   ar
    22    10    11   ar
    23    11    12   ar
    24    12    13    1
    25    13    14    1
    26     1    15    1
    27    15    16   ar
    28    16    17   ar
    29    17    18   ar
    30    18    19   ar
    31    19    22    1
    32    22    23    1
    33    19    20   ar
    34    20    21    1
    35    29    30   ar
    36    30    31   ar
    37    31    35    1
    38    35    36    1
    39    31    32   ar
    40    32    27   ar
    41    12     2   ar
    42    20    15   ar
    43    10     4   ar
    44    25    26    1
@<TRIPOS>MOLECULE
*****
 41 44 0 0 0
SMALL
GASTEIGER

@<TRIPOS>ATOM
      1 C         141.5427  142.1335  163.5495 C.3     1  UNL1        0.0800
      2 C         142.0019  142.1798  164.9768 C.ar    1  UNL1        0.0374
      3 C         141.2311  141.4500  166.0366 C.ar    1  UNL1        0.0023
      4 C         141.6903  141.4962  167.4638 C.ar    1  UNL1        0.0181
      5 C         140.9195  140.7664  168.5237 C.ar    1  UNL1        0.0082
      6 C         141.3787  140.8126  169.9510 C.ar    1  UNL1        0.0347
      7 BR        140.6079  140.0828  171.0108 Br      1  UNL1       -0.0490
      8 C         142.6086  141.5886  170.3183 C.ar    1  UNL1        0.0082
      9 C         143.3794  142.3184  169.2585 C.ar    1  UNL1        0.0197
     10 C         142.9203  142.2722  167.8313 C.ar    1  UNL1        0.0844
     11 N         143.6911  143.0020  166.7714 N.ar    1  UNL1       -0.2119
     12 C         143.2319  142.9558  165.3441 C.ar    1  UNL1        0.2211
     13 O         144.0027  143.6856  164.2843 O.3     1  UNL1       -0.4563
     14 C         143.7144  145.1317  164.0090 C.3     1  UNL1        0.2542
     15 C         140.6056  143.1826  163.0288 C.ar    1  UNL1        0.0180
     16 C         139.3011  143.4350  163.7247 C.ar    1  UNL1        0.0193
     17 C         138.3639  144.4841  163.2040 C.ar    1  UNL1        0.1019
     18 N         138.7313  145.2808  161.9873 N.ar    1  UNL1       -0.2082
     19 C         140.0359  145.0283  161.2914 C.ar    1  UNL1        0.2530
     20 C         140.9730  143.9793  161.8121 C.ar    1  UNL1        0.1894
     21 F         142.2776  143.7269  161.1161 F       1  UNL1       -0.1996
     22 O         140.4033  145.8250  160.0747 O.3     1  UNL1       -0.4546
     23 C         140.3820  145.1794  158.7208 C.3     1  UNL1        0.2543
     24 C         142.0207  141.0382  162.6430 C.3     1  UNL1        0.1162
     25 O         143.3977  141.6329  162.6503 O.3     1  UNL1       -0.3820
     26 H         143.9860  141.0933  162.0993 H       1  UNL1        0.2107
     27 C         138.7448  139.1502  163.8488 C.ar    1  UNL1        0.2272
     28 C         140.1218  139.7450  163.8562 C.ar    1  UNL1        0.0559
     29 C         140.6437  140.4434  162.6356 C.ar    1  UNL1        0.0117
     30 C         139.7886  140.5470  161.4076 C.ar    1  UNL1        0.0559
     31 C         138.4115  139.9522  161.4003 C.ar    1  UNL1        0.2272
     32 N         137.8897  139.2538  162.6208 N.ar    1  UNL1       -0.1767
     33 C         138.2394  139.1495  166.3973 C.3     1  UNL1        0.2542
     34 O         138.2229  138.4518  165.0695 O.3     1  UNL1       -0.4561
     35 O         137.5564  140.0558  160.1722 O.3     1  UNL1       -0.4561
     36 C         138.1393  140.5831  158.8947 C.3     1  UNL1        0.2542
     37 C         142.4987  139.9428  161.7365 C.3     1  UNL1        0.0491
     38 C         143.3851  138.8583  162.2732 C.3     1  UNL1        0.0750
     39 N         143.7818  138.8612  163.7198 N.3     1  UNL1       -0.2702
     40 C         142.8773  138.2472  164.7468 C.3     1  UNL1        0.0897
     41 C         145.0831  139.4780  164.1394 C.3     1  UNL1        0.0897
@<TRIPOS>BOND
     1    33    34    1
     2    34    27    1
     3    27    28   ar
     4    28    29   ar
     5    29    24    1
     6    24    25    1
     7    24    37    1
     8    37    38    1
     9    38    39    1
    10    39    40    1
    11    39    41    1
    12    24     1    1
    13     1     2    1
    14     2     3   ar
    15     3     4   ar
    16     4     5   ar
    17     5     6   ar
    18     6     7    1
    19     6     8   ar
    20     8     9   ar
    21     9    10   ar
    22    10    11   ar
    23    11    12   ar
    24    12    13    1
    25    13    14    1
    26     1    15    1
    27    15    16   ar
    28    16    17   ar
    29    17    18   ar
    30    18    19   ar
    31    19    22    1
    32    22    23    1
    33    19    20   ar
    34    20    21    1
    35    29    30   ar
    36    30    31   ar
    37    31    35    1
    38    35    36    1
    39    31    32   ar
    40    32    27   ar
    41    12     2   ar
    42    20    15   ar
    43    10     4   ar
    44    25    26    1
@<TRIPOS>MOLECULE
*****
 41 44 0 0 0
SMALL
GASTEIGER

@<TRIPOS>ATOM
      1 C         140.8003  140.6884  163.1859 C.3     1  UNL1        0.0800
      2 C         140.4734  140.5919  164.6467 C.ar    1  UNL1        0.0374
      3 C         140.6876  141.7754  165.5430 C.ar    1  UNL1        0.0023
      4 C         140.3607  141.6789  167.0037 C.ar    1  UNL1        0.0181
      5 C         140.5748  142.8625  167.9000 C.ar    1  UNL1        0.0082
      6 C         140.2479  142.7659  169.3608 C.ar    1  UNL1        0.0347
      7 BR        140.4620  143.9495  170.2571 Br      1  UNL1       -0.0490
      8 C         139.7068  141.4858  169.9253 C.ar    1  UNL1        0.0082
      9 C         139.4926  140.3023  169.0290 C.ar    1  UNL1        0.0197
     10 C         139.8195  140.3988  167.5682 C.ar    1  UNL1        0.0844
     11 N         139.6054  139.2152  166.6719 N.ar    1  UNL1       -0.2119
     12 C         139.9323  139.3118  165.2111 C.ar    1  UNL1        0.2211
     13 O         139.7181  138.1282  164.3149 O.3     1  UNL1       -0.4563
     14 C         140.7085  137.0016  164.3108 C.3     1  UNL1        0.2542
     15 C         141.8905  139.8386  162.6036 C.ar    1  UNL1        0.0180
     16 C         143.2031  139.7092  163.3179 C.ar    1  UNL1        0.0193
     17 C         144.2934  138.8594  162.7356 C.ar    1  UNL1        0.1019
     18 N         144.0710  138.1388  161.4389 N.ar    1  UNL1       -0.2082
     19 C         142.7584  138.2682  160.7246 C.ar    1  UNL1        0.2530
     20 C         141.6682  139.1180  161.3069 C.ar    1  UNL1        0.1894
     21 F         140.3556  139.2473  160.5925 F       1  UNL1       -0.1996
     22 O         142.5360  137.5476  159.4279 O.3     1  UNL1       -0.4546
     23 C         142.6856  138.2803  158.1275 C.3     1  UNL1        0.2543
     24 C         140.0370  141.6349  162.3075 C.3     1  UNL1        0.1162
     25 O         138.7778  140.8634  162.5706 O.3     1  UNL1       -0.3820
     26 H         138.0410  141.2742  162.0917 H       1  UNL1        0.2107
     27 C         143.3257  143.7688  162.9248 C.ar    1  UNL1        0.2272
     28 C         142.0664  142.9974  163.1879 C.ar    1  UNL1        0.0559
     29 C         141.2963  142.4063  162.0444 C.ar    1  UNL1        0.0117
     30 C         141.7853  142.5867  160.6380 C.ar    1  UNL1        0.0559
     31 C         143.0446  143.3581  160.3749 C.ar    1  UNL1        0.2272
     32 N         143.8147  143.9492  161.5183 N.ar    1  UNL1       -0.1767
     33 C         144.3788  143.5343  165.2883 C.3     1  UNL1        0.2542
     34 O         144.0958  144.3599  164.0683 O.3     1  UNL1       -0.4561
     35 O         143.5336  143.5385  158.9683 O.3     1  UNL1       -0.4561
     36 C         142.5860  143.9905  157.8970 C.3     1  UNL1        0.2542
     37 C         139.2737  142.5813  161.4291 C.3     1  UNL1        0.0491
     38 C         138.3671  143.6073  162.0417 C.3     1  UNL1        0.0750
     39 N         138.9467  144.7529  162.8173 N.3     1  UNL1       -0.2702
     40 C         139.6282  145.8781  162.0966 C.3     1  UNL1        0.0897
     41 C         138.8448  144.7733  164.3137 C.3     1  UNL1        0.0897
@<TRIPOS>BOND
     1    33    34    1
     2    34    27    1
     3    27    28   ar
     4    28    29   ar
     5    29    24    1
     6    24    25    1
     7    24    37    1
     8    37    38    1
     9    38    39    1
    10    39    40    1
    11    39    41    1
    12    24     1    1
    13     1     2    1
    14     2     3   ar
    15     3     4   ar
    16     4     5   ar
    17     5     6   ar
    18     6     7    1
    19     6     8   ar
    20     8     9   ar
    21     9    10   ar
    22    10    11   ar
    23    11    12   ar
    24    12    13    1
    25    13    14    1
    26     1    15    1
    27    15    16   ar
    28    16    17   ar
    29    17    18   ar
    30    18    19   ar
    31    19    22    1
    32    22    23    1
    33    19    20   ar
    34    20    21    1
    35    29    30   ar
    36    30    31   ar
    37    31    35    1
    38    35    36    1
    39    31    32   ar
    40    32    27   ar
    41    12     2   ar
    42    20    15   ar
    43    10     4   ar
    44    25    26    1
@<TRIPOS>MOLECULE
*****
 41 44 0 0 0
SMALL
GASTEIGER

@<TRIPOS>ATOM
      1 C         141.5622  141.5791  164.5671 C.3     1  UNL1        0.0800
      2 C         142.3299  141.7968  163.2969 C.ar    1  UNL1        0.0374
      3 C         141.9955  140.9980  162.0722 C.ar    1  UNL1        0.0023
      4 C         142.7631  141.2157  160.8020 C.ar    1  UNL1        0.0181
      5 C         142.4288  140.4168  159.5773 C.ar    1  UNL1        0.0082
      6 C         143.1965  140.6346  158.3071 C.ar    1  UNL1        0.0347
      7 BR        142.8621  139.8357  157.0824 Br      1  UNL1       -0.0490
      8 C         144.2985  141.6512  158.2617 C.ar    1  UNL1        0.0082
      9 C         144.6328  142.4501  159.4865 C.ar    1  UNL1        0.0197
     10 C         143.8652  142.2323  160.7566 C.ar    1  UNL1        0.0844
     11 N         144.1996  143.0312  161.9813 N.ar    1  UNL1       -0.2119
     12 C         143.4319  142.8135  163.2515 C.ar    1  UNL1        0.2211
     13 O         143.7662  143.6123  164.4763 O.3     1  UNL1       -0.4563
     14 C         143.9150  145.1020  164.3825 C.3     1  UNL1        0.2542
     15 C         142.1334  140.7117  165.6493 C.ar    1  UNL1        0.0180
     16 C         142.6076  139.3255  165.3274 C.ar    1  UNL1        0.0193
     17 C         143.1788  138.4580  166.4097 C.ar    1  UNL1        0.1019
     18 N         143.2758  138.9767  167.8138 N.ar    1  UNL1       -0.2082
     19 C         142.8015  140.3629  168.1357 C.ar    1  UNL1        0.2530
     20 C         142.2303  141.2304  167.0535 C.ar    1  UNL1        0.1894
     21 F         141.7560  142.6165  167.3753 F       1  UNL1       -0.1996
     22 O         142.8984  140.8816  169.5398 O.3     1  UNL1       -0.4546
     23 C         141.6520  141.1110  170.3424 C.3     1  UNL1        0.2543
     24 C         140.2233  142.2288  164.7550 C.3     1  UNL1        0.1162
     25 O         140.8611  143.5803  164.6265 O.3     1  UNL1       -0.3820
     26 H         140.1823  144.2678  164.7134 H       1  UNL1        0.2107
     27 C         138.8458  138.6276  163.8148 C.ar    1  UNL1        0.2272
     28 C         139.4836  139.9792  163.6863 C.ar    1  UNL1        0.0559
     29 C         139.5855  140.8772  164.8834 C.ar    1  UNL1        0.0117
     30 C         139.0495  140.4238  166.2089 C.ar    1  UNL1        0.0559
     31 C         138.4117  139.0722  166.3374 C.ar    1  UNL1        0.2272
     32 N         138.3098  138.1741  165.1403 N.ar    1  UNL1       -0.1767
     33 C         139.3580  138.1453  161.3138 C.3     1  UNL1        0.2542
     34 O         138.7440  137.7295  162.6176 O.3     1  UNL1       -0.4561
     35 O         137.8757  138.6188  167.6630 O.3     1  UNL1       -0.4561
     36 C         136.8049  137.5699  167.7199 C.3     1  UNL1        0.2542
     37 C         138.8844  142.8785  164.9429 C.3     1  UNL1        0.0491
     38 C         138.5632  144.1557  164.2249 C.3     1  UNL1        0.0750
     39 N         138.6954  144.2310  162.7327 N.3     1  UNL1       -0.2702
     40 C         139.3666  145.4127  162.0979 C.3     1  UNL1        0.0897
     41 C         138.1565  143.1246  161.8752 C.3     1  UNL1        0.0897
@<TRIPOS>BOND
     1    33    34    1
     2    34    27    1
     3    27    28   ar
     4    28    29   ar
     5    29    24    1
     6    24    25    1
     7    24    37    1
     8    37    38    1
     9    38    39    1
    10    39    40    1
    11    39    41    1
    12    24     1    1
    13     1     2    1
    14     2     3   ar
    15     3     4   ar
    16     4     5   ar
    17     5     6   ar
    18     6     7    1
    19     6     8   ar
    20     8     9   ar
    21     9    10   ar
    22    10    11   ar
    23    11    12   ar
    24    12    13    1
    25    13    14    1
    26     1    15    1
    27    15    16   ar
    28    16    17   ar
    29    17    18   ar
    30    18    19   ar
    31    19    22    1
    32    22    23    1
    33    19    20   ar
    34    20    21    1
    35    29    30   ar
    36    30    31   ar
    37    31    35    1
    38    35    36    1
    39    31    32   ar
    40    32    27   ar
    41    12     2   ar
    42    20    15   ar
    43    10     4   ar
    44    25    26    1
@<TRIPOS>MOLECULE
*****
 41 44 0 0 0
SMALL
GASTEIGER

@<TRIPOS>ATOM
      1 C         141.6317  141.6010  162.5238 C.3     1  UNL1        0.0800
      2 C         142.0777  141.7720  163.9458 C.ar    1  UNL1        0.0374
      3 C         141.3844  141.0222  165.0445 C.ar    1  UNL1        0.0023
      4 C         141.8303  141.1931  166.4664 C.ar    1  UNL1        0.0181
      5 C         141.1370  140.4433  167.5652 C.ar    1  UNL1        0.0082
      6 C         141.5830  140.6143  168.9872 C.ar    1  UNL1        0.0347
      7 BR        140.8897  139.8645  170.0859 Br      1  UNL1       -0.0490
      8 C         142.7221  141.5351  169.3104 C.ar    1  UNL1        0.0082
      9 C         143.4154  142.2849  168.2116 C.ar    1  UNL1        0.0197
     10 C         142.9695  142.1139  166.7897 C.ar    1  UNL1        0.0844
     11 N         143.6628  142.8637  165.6910 N.ar    1  UNL1       -0.2119
     12 C         143.2168  142.6928  164.2690 C.ar    1  UNL1        0.2211
     13 O         143.9101  143.4426  163.1703 O.3     1  UNL1       -0.4563
     14 C         143.8888  144.9424  163.1565 C.3     1  UNL1        0.2542
     15 C         142.4909  140.8451  161.5541 C.ar    1  UNL1        0.0180
     16 C         142.8893  139.4297  161.8503 C.ar    1  UNL1        0.0193
     17 C         143.7485  138.6738  160.8806 C.ar    1  UNL1        0.1019
     18 N         144.2093  139.3333  159.6146 N.ar    1  UNL1       -0.2082
     19 C         143.8109  140.7489  159.3184 C.ar    1  UNL1        0.2530
     20 C         142.9517  141.5047  160.2882 C.ar    1  UNL1        0.1894
     21 F         142.5534  142.9202  159.9919 F       1  UNL1       -0.1996
     22 O         144.2718  141.4084  158.0525 O.3     1  UNL1       -0.4546
     23 C         145.2659  142.5303  158.1102 C.3     1  UNL1        0.2543
     24 C         140.3266  142.1859  162.0716 C.3     1  UNL1        0.1162
     25 O         140.8075  143.5544  162.4536 O.3     1  UNL1       -0.3820
     26 H         140.1155  144.2060  162.2603 H       1  UNL1        0.2107
     27 C         139.0358  138.4452  162.3727 C.ar    1  UNL1        0.2272
     28 C         139.5167  139.8137  162.7546 C.ar    1  UNL1        0.0559
     29 C         139.8456  140.8174  161.6897 C.ar    1  UNL1        0.0117
     30 C         139.6935  140.4527  160.2427 C.ar    1  UNL1        0.0559
     31 C         139.2126  139.0842  159.8607 C.ar    1  UNL1        0.2272
     32 N         138.8837  138.0804  160.9257 N.ar    1  UNL1       -0.1767
     33 C         138.9988  137.7512  164.8761 C.3     1  UNL1        0.2542
     34 O         138.7069  137.4414  163.4377 O.3     1  UNL1       -0.4561
     35 O         139.0605  138.7195  158.4136 O.3     1  UNL1       -0.4561
     36 C         140.2168  138.1271  157.6640 C.3     1  UNL1        0.2542
     37 C         139.0214  142.7708  161.6195 C.3     1  UNL1        0.0491
     38 C         138.3344  143.8084  162.4568 C.3     1  UNL1        0.0750
     39 N         138.2676  143.6462  163.9466 N.3     1  UNL1       -0.2702
     40 C         137.7262  142.3792  164.5395 C.3     1  UNL1        0.0897
     41 C         138.7422  144.7510  164.8433 C.3     1  UNL1        0.0897
@<TRIPOS>BOND
     1    33    34    1
     2    34    27    1
     3    27    28   ar
     4    28    29   ar
     5    29    24    1
     6    24    25    1
     7    24    37    1
     8    37    38    1
     9    38    39    1
    10    39    40    1
    11    39    41    1
    12    24     1    1
    13     1     2    1
    14     2     3   ar
    15     3     4   ar
    16     4     5   ar
    17     5     6   ar
    18     6     7    1
    19     6     8   ar
    20     8     9   ar
    21     9    10   ar
    22    10    11   ar
    23    11    12   ar
    24    12    13    1
    25    13    14    1
    26     1    15    1
    27    15    16   ar
    28    16    17   ar
    29    17    18   ar
    30    18    19   ar
    31    19    22    1
    32    22    23    1
    33    19    20   ar
    34    20    21    1
    35    29    30   ar
    36    30    31   ar
    37    31    35    1
    38    35    36    1
    39    31    32   ar
    40    32    27   ar
    41    12     2   ar
    42    20    15   ar
    43    10     4   ar
    44    25    26    1
