@<TRIPOS>MOLECULE
*****
 23 24 0 0 0
SMALL
GASTEIGER

@<TRIPOS>ATOM
      1 C         141.1300  142.1998  165.5393 C.2     1  UNL1        0.1879
      2 O         142.1704  141.8306  164.5237 O.2     1  UNL1       -0.2899
      3 C         141.5112  142.3526  166.9820 C.ar    1  UNL1        0.0370
      4 C         142.9397  142.1741  167.4033 C.ar    1  UNL1        0.0042
      5 C         143.3209  142.3269  168.8459 C.ar    1  UNL1        0.0150
      6 C         142.2735  142.6582  169.8673 C.ar    1  UNL1        0.0522
      7 N         142.6547  142.8111  171.3101 N.pl3   1  UNL1       -0.3563
      8 C         140.8450  142.8368  169.4461 C.ar    1  UNL1        0.0706
      9 CL        139.7977  143.1681  170.4675 Cl      1  UNL1       -0.0810
     10 C         140.4639  142.6840  168.0034 C.ar    1  UNL1        0.0155
     11 H         143.5923  142.6939  171.5866 H       1  UNL1        0.1424
     12 H         141.9673  143.0285  171.9805 H       1  UNL1        0.1424
     13 C         139.7085  142.4161  165.1122 C.3     1  UNL1        0.1256
     14 C         138.2737  142.3192  164.6857 C.3     1  UNL1        0.0259
     15 C         137.7476  143.7127  164.5085 C.3     1  UNL1        0.0189
     16 C         138.8573  144.6709  164.8255 C.3     1  UNL1        0.0689
     17 N         140.0692  143.8695  165.1986 N.3     1  UNL1       -0.2918
     18 H         140.3564  144.0989  166.1501 H       1  UNL1        0.1236
     19 C         139.6450  140.9175  165.1150 C.3     1  UNL1        0.1637
     20 O         138.3256  140.2231  165.2787 O.3     1  UNL1       -0.3544
     21 C         137.6515  138.5703  167.1667 C.3     1  UNL1        0.0320
     22 C         138.2752  138.8278  165.8270 C.3     1  UNL1        0.1155
     23 C         138.8487  137.6899  165.0356 C.3     1  UNL1        0.0320
@<TRIPOS>BOND
     1    21    22    1
     2    22    23    1
     3    22    20    1
     4    20    19    1
     5    19    13    1
     6    13     1    1
     7     1     2    2
     8     1     3    1
     9     3     4   ar
    10     4     5   ar
    11     5     6   ar
    12     6     7    1
    13     6     8   ar
    14     8     9    1
    15     8    10   ar
    16    13    14    1
    17    14    15    1
    18    15    16    1
    19    16    17    1
    20    17    13    1
    21    10     3   ar
    22     7    11    1
    23     7    12    1
    24    17    18    1
@<TRIPOS>MOLECULE
*****
 23 24 0 0 0
SMALL
GASTEIGER

@<TRIPOS>ATOM
      1 C         140.8608  141.8940  165.2156 C.2     1  UNL1        0.1879
      2 O         142.0089  142.1190  164.2768 O.2     1  UNL1       -0.2899
      3 C         141.0870  141.1936  166.5227 C.ar    1  UNL1        0.0370
      4 C         142.2545  140.2659  166.6843 C.ar    1  UNL1        0.0042
      5 C         142.4806  139.5656  167.9914 C.ar    1  UNL1        0.0150
      6 C         141.5392  139.7931  169.1368 C.ar    1  UNL1        0.0522
      7 N         141.7654  139.0928  170.4439 N.pl3   1  UNL1       -0.3563
      8 C         140.3718  140.7209  168.9752 C.ar    1  UNL1        0.0706
      9 CL        139.4304  140.9484  170.1207 Cl      1  UNL1       -0.0810
     10 C         140.1456  141.4212  167.6682 C.ar    1  UNL1        0.0155
     11 H         142.5317  138.4839  170.5500 H       1  UNL1        0.1424
     12 H         141.1476  139.2421  171.1958 H       1  UNL1        0.1424
     13 C         139.4866  142.3692  164.8473 C.3     1  UNL1        0.1256
     14 C         138.0678  142.5459  164.3938 C.3     1  UNL1        0.0259
     15 C         137.6915  143.9836  164.5979 C.3     1  UNL1        0.0189
     16 C         138.8779  144.6953  165.1776 C.3     1  UNL1        0.0689
     17 N         139.9873  143.6975  165.3317 N.3     1  UNL1       -0.2918
     18 H         140.2572  143.6288  166.3129 H       1  UNL1        0.1236
     19 C         139.2732  140.9414  164.4398 C.3     1  UNL1        0.1637
     20 O         138.1064  140.1724  164.9848 O.3     1  UNL1       -0.3544
     21 C         137.7237  138.6281  167.0388 C.3     1  UNL1        0.0320
     22 C         138.3312  138.8668  165.6883 C.3     1  UNL1        0.1155
     23 C         139.1637  137.7998  165.0412 C.3     1  UNL1        0.0320
@<TRIPOS>BOND
     1    21    22    1
     2    22    23    1
     3    22    20    1
     4    20    19    1
     5    19    13    1
     6    13     1    1
     7     1     2    2
     8     1     3    1
     9     3     4   ar
    10     4     5   ar
    11     5     6   ar
    12     6     7    1
    13     6     8   ar
    14     8     9    1
    15     8    10   ar
    16    13    14    1
    17    14    15    1
    18    15    16    1
    19    16    17    1
    20    17    13    1
    21    10     3   ar
    22     7    11    1
    23     7    12    1
    24    17    18    1
@<TRIPOS>MOLECULE
*****
 23 24 0 0 0
SMALL
GASTEIGER

@<TRIPOS>ATOM
      1 C         140.9767  141.9820  164.6663 C.2     1  UNL1        0.1879
      2 O         141.9263  142.3273  163.5578 O.2     1  UNL1       -0.2899
      3 C         141.4534  141.1767  165.8387 C.ar    1  UNL1        0.0370
      4 C         140.9805  141.5134  167.2218 C.ar    1  UNL1        0.0042
      5 C         141.4572  140.7081  168.3941 C.ar    1  UNL1        0.0150
      6 C         142.4067  139.5662  168.1832 C.ar    1  UNL1        0.0522
      7 N         142.8834  138.7609  169.3556 N.pl3   1  UNL1       -0.3563
      8 C         142.8796  139.2296  166.8001 C.ar    1  UNL1        0.0706
      9 CL        143.8291  138.0877  166.5893 Cl      1  UNL1       -0.0810
     10 C         142.4029  140.0348  165.6279 C.ar    1  UNL1        0.0155
     11 H         142.5731  138.9819  170.2634 H       1  UNL1        0.1424
     12 H         143.5067  138.0115  169.2173 H       1  UNL1        0.1424
     13 C         139.5503  142.4418  164.6025 C.3     1  UNL1        0.1256
     14 C         138.0653  142.6024  164.4654 C.3     1  UNL1        0.0259
     15 C         137.7265  144.0369  164.7444 C.3     1  UNL1        0.0189
     16 C         139.0022  144.7627  165.0538 C.3     1  UNL1        0.0689
     17 N         140.1294  143.7769  164.9661 N.3     1  UNL1       -0.2918
     18 H         140.6053  143.7142  165.8661 H       1  UNL1        0.1236
     19 C         139.2695  141.0106  164.2522 C.3     1  UNL1        0.1637
     20 O         138.1522  140.2772  164.9331 O.3     1  UNL1       -0.3544
     21 C         137.8618  138.7868  167.0413 C.3     1  UNL1        0.0320
     22 C         138.4321  139.0014  165.6707 C.3     1  UNL1        0.1155
     23 C         139.2824  137.9402  165.0376 C.3     1  UNL1        0.0320
@<TRIPOS>BOND
     1    21    22    1
     2    22    23    1
     3    22    20    1
     4    20    19    1
     5    19    13    1
     6    13     1    1
     7     1     2    2
     8     1     3    1
     9     3     4   ar
    10     4     5   ar
    11     5     6   ar
    12     6     7    1
    13     6     8   ar
    14     8     9    1
    15     8    10   ar
    16    13    14    1
    17    14    15    1
    18    15    16    1
    19    16    17    1
    20    17    13    1
    21    10     3   ar
    22     7    11    1
    23     7    12    1
    24    17    18    1
@<TRIPOS>MOLECULE
*****
 23 24 0 0 0
SMALL
GASTEIGER

@<TRIPOS>ATOM
      1 C         141.6007  141.4788  166.9768 C.2     1  UNL1        0.1879
      2 O         142.6533  140.4319  166.7624 O.2     1  UNL1       -0.2899
      3 C         141.4273  142.5838  165.9772 C.ar    1  UNL1        0.0370
      4 C         140.0732  143.1903  165.7571 C.ar    1  UNL1        0.0042
      5 C         139.8998  144.2952  164.7576 C.ar    1  UNL1        0.0150
      6 C         141.0806  144.7935  163.9782 C.ar    1  UNL1        0.0522
      7 N         140.9072  145.8985  162.9786 N.pl3   1  UNL1       -0.3563
      8 C         142.4347  144.1870  164.1983 C.ar    1  UNL1        0.0706
      9 CL        143.6154  144.6853  163.4188 Cl      1  UNL1       -0.0810
     10 C         142.6080  143.0821  165.1978 C.ar    1  UNL1        0.0155
     11 H         140.0184  146.2966  162.8341 H       1  UNL1        0.1424
     12 H         141.6821  146.2256  162.4670 H       1  UNL1        0.1424
     13 C         140.7215  141.4208  168.1908 C.3     1  UNL1        0.1256
     14 C         139.7538  141.0861  169.2869 C.3     1  UNL1        0.0259
     15 C         139.7630  142.2154  170.2742 C.3     1  UNL1        0.0189
     16 C         140.7364  143.2480  169.7882 C.3     1  UNL1        0.0689
     17 N         141.3288  142.7570  168.5006 N.3     1  UNL1       -0.2918
     18 H         142.3398  142.6634  168.5981 H       1  UNL1        0.1236
     19 C         140.2981  140.0968  167.6271 C.3     1  UNL1        0.1637
     20 O         138.9483  139.5358  167.9633 O.3     1  UNL1       -0.3544
     21 C         138.1228  139.4902  165.5003 C.3     1  UNL1        0.0320
     22 C         138.1024  138.9210  166.8879 C.3     1  UNL1        0.1155
     23 C         137.2361  137.7369  167.2002 C.3     1  UNL1        0.0320
@<TRIPOS>BOND
     1    21    22    1
     2    22    23    1
     3    22    20    1
     4    20    19    1
     5    19    13    1
     6    13     1    1
     7     1     2    2
     8     1     3    1
     9     3     4   ar
    10     4     5   ar
    11     5     6   ar
    12     6     7    1
    13     6     8   ar
    14     8     9    1
    15     8    10   ar
    16    13    14    1
    17    14    15    1
    18    15    16    1
    19    16    17    1
    20    17    13    1
    21    10     3   ar
    22     7    11    1
    23     7    12    1
    24    17    18    1
@<TRIPOS>MOLECULE
*****
 23 24 0 0 0
SMALL
GASTEIGER

@<TRIPOS>ATOM
      1 C         140.8326  141.7850  166.2138 C.2     1  UNL1        0.1879
      2 O         140.5880  143.2496  166.0013 O.2     1  UNL1       -0.2899
      3 C         141.5092  141.3115  167.4661 C.ar    1  UNL1        0.0370
      4 C         141.0966  140.0148  168.0971 C.ar    1  UNL1        0.0042
      5 C         141.7731  139.5414  169.3493 C.ar    1  UNL1        0.0150
      6 C         142.8622  140.3647  169.9706 C.ar    1  UNL1        0.0522
      7 N         143.5387  139.8913  171.2229 N.pl3   1  UNL1       -0.3563
      8 C         143.2748  141.6615  169.3396 C.ar    1  UNL1        0.0706
      9 CL        144.3639  142.4848  169.9609 Cl      1  UNL1       -0.0810
     10 C         142.5983  142.1349  168.0874 C.ar    1  UNL1        0.0155
     11 H         143.2679  139.0402  171.6371 H       1  UNL1        0.1424
     12 H         144.2535  140.4316  171.6307 H       1  UNL1        0.1424
     13 C         140.4009  140.7939  165.1740 C.3     1  UNL1        0.1256
     14 C         140.2695  139.8149  164.0451 C.3     1  UNL1        0.0259
     15 C         138.8415  139.3589  163.9908 C.3     1  UNL1        0.0189
     16 C         138.0903  140.0560  165.0862 C.3     1  UNL1        0.0689
     17 N         139.0541  140.9429  165.8174 N.3     1  UNL1       -0.2918
     18 H         139.1059  140.6642  166.7972 H       1  UNL1        0.1236
     19 C         141.8379  140.8521  164.7480 C.3     1  UNL1        0.1637
     20 O         142.5318  139.6080  164.2780 O.3     1  UNL1       -0.3544
     21 C         143.6889  138.2906  166.1953 C.3     1  UNL1        0.0320
     22 C         143.7818  139.1418  164.9637 C.3     1  UNL1        0.1155
     23 C         145.1248  139.5269  164.4176 C.3     1  UNL1        0.0320
@<TRIPOS>BOND
     1    21    22    1
     2    22    23    1
     3    22    20    1
     4    20    19    1
     5    19    13    1
     6    13     1    1
     7     1     2    2
     8     1     3    1
     9     3     4   ar
    10     4     5   ar
    11     5     6   ar
    12     6     7    1
    13     6     8   ar
    14     8     9    1
    15     8    10   ar
    16    13    14    1
    17    14    15    1
    18    15    16    1
    19    16    17    1
    20    17    13    1
    21    10     3   ar
    22     7    11    1
    23     7    12    1
    24    17    18    1
@<TRIPOS>MOLECULE
*****
 23 24 0 0 0
SMALL
GASTEIGER

@<TRIPOS>ATOM
      1 C         142.3354  140.0984  168.7726 C.2     1  UNL1        0.1879
      2 O         142.8789  139.1541  169.8036 O.2     1  UNL1       -0.2899
      3 C         142.8080  140.0105  167.3517 C.ar    1  UNL1        0.0370
      4 C         143.2330  138.6892  166.7831 C.ar    1  UNL1        0.0042
      5 C         143.7056  138.6013  165.3622 C.ar    1  UNL1        0.0150
      6 C         143.7532  139.8348  164.5100 C.ar    1  UNL1        0.0522
      7 N         144.2258  139.7468  163.0891 N.pl3   1  UNL1       -0.3563
      8 C         143.3281  141.1561  165.0786 C.ar    1  UNL1        0.0706
      9 CL        143.3757  142.3895  164.2264 Cl      1  UNL1       -0.0810
     10 C         142.8555  141.2440  166.4995 C.ar    1  UNL1        0.0155
     11 H         144.5048  138.8796  162.7159 H       1  UNL1        0.1424
     12 H         144.2570  140.5564  162.5297 H       1  UNL1        0.1424
     13 C         141.3193  141.1307  169.1626 C.3     1  UNL1        0.1256
     14 C         140.0967  141.9514  169.4480 C.3     1  UNL1        0.0259
     15 C         140.5417  143.2547  170.0427 C.3     1  UNL1        0.0189
     16 C         142.0393  143.2393  170.1247 C.3     1  UNL1        0.0689
     17 N         142.5199  141.9266  169.5808 N.3     1  UNL1       -0.2918
     18 H         143.0363  141.4217  170.3010 H       1  UNL1        0.1236
     19 C         140.3311  140.1189  168.6629 C.3     1  UNL1        0.1637
     20 O         139.4389  140.4509  167.5037 O.3     1  UNL1       -0.3544
     21 C         137.7874  138.5489  166.8672 C.3     1  UNL1        0.0320
     22 C         139.0038  139.3705  166.5585 C.3     1  UNL1        0.1155
     23 C         139.7852  139.1118  165.3045 C.3     1  UNL1        0.0320
@<TRIPOS>BOND
     1    21    22    1
     2    22    23    1
     3    22    20    1
     4    20    19    1
     5    19    13    1
     6    13     1    1
     7     1     2    2
     8     1     3    1
     9     3     4   ar
    10     4     5   ar
    11     5     6   ar
    12     6     7    1
    13     6     8   ar
    14     8     9    1
    15     8    10   ar
    16    13    14    1
    17    14    15    1
    18    15    16    1
    19    16    17    1
    20    17    13    1
    21    10     3   ar
    22     7    11    1
    23     7    12    1
    24    17    18    1
@<TRIPOS>MOLECULE
*****
 23 24 0 0 0
SMALL
GASTEIGER

@<TRIPOS>ATOM
      1 C         139.0390  139.8967  166.0123 C.2     1  UNL1        0.1879
      2 O         138.0301  138.8252  166.3021 O.2     1  UNL1       -0.2899
      3 C         138.6683  141.0599  165.1407 C.ar    1  UNL1        0.0370
      4 C         137.8027  140.8472  163.9342 C.ar    1  UNL1        0.0042
      5 C         137.4321  142.0104  163.0627 C.ar    1  UNL1        0.0150
      6 C         137.9270  143.3862  163.3976 C.ar    1  UNL1        0.0522
      7 N         137.5563  144.5494  162.5259 N.pl3   1  UNL1       -0.3563
      8 C         138.7925  143.5989  164.6040 C.ar    1  UNL1        0.0706
      9 CL        139.2874  144.9748  164.9389 Cl      1  UNL1       -0.0810
     10 C         139.1631  142.4358  165.4756 C.ar    1  UNL1        0.0155
     11 H         136.9882  144.4098  161.7341 H       1  UNL1        0.1424
     12 H         137.8811  145.4524  162.7457 H       1  UNL1        0.1424
     13 C         140.4185  139.8051  166.5941 C.3     1  UNL1        0.1256
     14 C         141.8835  139.6567  166.8796 C.3     1  UNL1        0.0259
     15 C         142.0914  139.8558  168.3517 C.3     1  UNL1        0.0189
     16 C         140.7548  140.1272  168.9760 C.3     1  UNL1        0.0689
     17 N         139.7209  140.0959  167.8897 N.3     1  UNL1       -0.2918
     18 H         139.2498  140.9989  167.8342 H       1  UNL1        0.1236
     19 C         140.8276  139.5335  165.1768 C.3     1  UNL1        0.1637
     20 O         140.9018  138.1218  164.6750 O.3     1  UNL1       -0.3544
     21 C         141.3824  137.6783  162.1605 C.3     1  UNL1        0.0320
     22 C         140.4103  137.7885  163.2976 C.3     1  UNL1        0.1155
     23 C         138.9466  137.5654  163.0573 C.3     1  UNL1        0.0320
@<TRIPOS>BOND
     1    21    22    1
     2    22    23    1
     3    22    20    1
     4    20    19    1
     5    19    13    1
     6    13     1    1
     7     1     2    2
     8     1     3    1
     9     3     4   ar
    10     4     5   ar
    11     5     6   ar
    12     6     7    1
    13     6     8   ar
    14     8     9    1
    15     8    10   ar
    16    13    14    1
    17    14    15    1
    18    15    16    1
    19    16    17    1
    20    17    13    1
    21    10     3   ar
    22     7    11    1
    23     7    12    1
    24    17    18    1
@<TRIPOS>MOLECULE
*****
 23 24 0 0 0
SMALL
GASTEIGER

@<TRIPOS>ATOM
      1 C         141.4458  140.8340  166.2370 C.2     1  UNL1        0.1879
      2 O         142.7755  140.2051  166.5305 O.2     1  UNL1       -0.2899
      3 C         141.3787  142.1290  165.4829 C.ar    1  UNL1        0.0370
      4 C         140.1293  142.9579  165.5256 C.ar    1  UNL1        0.0042
      5 C         140.0622  144.2528  164.7715 C.ar    1  UNL1        0.0150
      6 C         141.2446  144.7188  163.9748 C.ar    1  UNL1        0.0522
      7 N         141.1775  146.0138  163.2207 N.pl3   1  UNL1       -0.3563
      8 C         142.4940  143.8899  163.9320 C.ar    1  UNL1        0.0706
      9 CL        143.6763  144.3560  163.1353 Cl      1  UNL1       -0.0810
     10 C         142.5610  142.5950  164.6861 C.ar    1  UNL1        0.0155
     11 H         140.3574  146.5579  163.2487 H       1  UNL1        0.1424
     12 H         141.9535  146.3197  162.6977 H       1  UNL1        0.1424
     13 C         140.1831  140.1680  166.6975 C.3     1  UNL1        0.1256
     14 C         139.0232  139.5789  167.4442 C.3     1  UNL1        0.0259
     15 C         138.0788  138.9862  166.4407 C.3     1  UNL1        0.0189
     16 C         138.6551  139.2090  165.0739 C.3     1  UNL1        0.0689
     17 N         139.9557  139.9394  165.2326 N.3     1  UNL1       -0.2918
     18 H         139.9117  140.8345  164.7454 H       1  UNL1        0.1236
     19 C         140.6746  140.5358  168.0662 C.3     1  UNL1        0.1637
     20 O         140.0901  141.7184  168.7802 O.3     1  UNL1       -0.3544
     21 C         142.4803  142.6109  169.2705 C.3     1  UNL1        0.0320
     22 C         140.9916  142.7855  169.3267 C.3     1  UNL1        0.1155
     23 C         140.4043  144.0272  169.9295 C.3     1  UNL1        0.0320
@<TRIPOS>BOND
     1    21    22    1
     2    22    23    1
     3    22    20    1
     4    20    19    1
     5    19    13    1
     6    13     1    1
     7     1     2    2
     8     1     3    1
     9     3     4   ar
    10     4     5   ar
    11     5     6   ar
    12     6     7    1
    13     6     8   ar
    14     8     9    1
    15     8    10   ar
    16    13    14    1
    17    14    15    1
    18    15    16    1
    19    16    17    1
    20    17    13    1
    21    10     3   ar
    22     7    11    1
    23     7    12    1
    24    17    18    1
@<TRIPOS>MOLECULE
*****
 23 24 0 0 0
SMALL
GASTEIGER

@<TRIPOS>ATOM
      1 C         140.2997  141.4529  165.2384 C.2     1  UNL1        0.1879
      2 O         141.3782  142.2387  164.5532 O.2     1  UNL1       -0.2899
      3 C         140.2350  141.4165  166.7366 C.ar    1  UNL1        0.0370
      4 C         139.8761  140.1417  167.4409 C.ar    1  UNL1        0.0042
      5 C         139.8114  140.1053  168.9391 C.ar    1  UNL1        0.0150
      6 C         140.1055  141.3436  169.7328 C.ar    1  UNL1        0.0522
      7 N         140.0408  141.3071  171.2310 N.pl3   1  UNL1       -0.3563
      8 C         140.4644  142.6183  169.0285 C.ar    1  UNL1        0.0706
      9 CL        140.7586  143.8566  169.8222 Cl      1  UNL1       -0.0810
     10 C         140.5291  142.6548  167.5303 C.ar    1  UNL1        0.0155
     11 H         139.8052  140.4704  171.6933 H       1  UNL1        0.1424
     12 H         140.2339  142.1198  171.7520 H       1  UNL1        0.1424
     13 C         139.2859  140.7037  164.4254 C.3     1  UNL1        0.1256
     14 C         138.0788  140.1844  163.7022 C.3     1  UNL1        0.0259
     15 C         138.4698  138.9202  162.9958 C.3     1  UNL1        0.0189
     16 C         139.9187  138.6582  163.2825 C.3     1  UNL1        0.0689
     17 N         140.4231  139.7605  164.1660 N.3     1  UNL1       -0.2918
     18 H         141.1843  140.2556  163.7015 H       1  UNL1        0.1236
     19 C         138.3608  141.8036  164.8547 C.3     1  UNL1        0.1637
     20 O         137.9278  142.8473  163.8682 O.3     1  UNL1       -0.3544
     21 C         138.5463  144.8996  165.3365 C.3     1  UNL1        0.0320
     22 C         138.4417  144.2515  163.9878 C.3     1  UNL1        0.1155
     23 C         138.8510  145.0075  162.7586 C.3     1  UNL1        0.0320
@<TRIPOS>BOND
     1    21    22    1
     2    22    23    1
     3    22    20    1
     4    20    19    1
     5    19    13    1
     6    13     1    1
     7     1     2    2
     8     1     3    1
     9     3     4   ar
    10     4     5   ar
    11     5     6   ar
    12     6     7    1
    13     6     8   ar
    14     8     9    1
    15     8    10   ar
    16    13    14    1
    17    14    15    1
    18    15    16    1
    19    16    17    1
    20    17    13    1
    21    10     3   ar
    22     7    11    1
    23     7    12    1
    24    17    18    1
