@<TRIPOS>MOLECULE
*****
 29 32 0 0 0
SMALL
GASTEIGER

@<TRIPOS>ATOM
      1 N         141.3533  143.8715  163.6712 N.3     1  UNL1       -0.2641
      2 C         140.2827  143.2329  164.5054 C.3     1  UNL1        0.0730
      3 C         140.6463  142.5161  165.7719 C.3     1  UNL1        0.0245
      4 C         142.0806  142.4380  166.2042 C.3     1  UNL1        0.0577
      5 C         143.1512  143.0766  165.3699 C.3     1  UNL1        0.1808
      6 F         144.5855  142.9985  165.8022 F       1  UNL1       -0.2354
      7 C         142.7875  143.7934  164.1034 C.3     1  UNL1        0.1084
      8 C         142.4442  141.7212  167.4707 C.ar    1  UNL1       -0.0196
      9 C         143.1070  142.4670  168.5907 C.ar    1  UNL1       -0.0011
     10 C         143.4706  141.7502  169.8572 C.ar    1  UNL1        0.0363
     11 C         143.1715  140.2876  170.0036 C.ar    1  UNL1        0.1337
     12 O         143.5351  139.5708  171.2701 O.3     1  UNL1       -0.5055
     13 C         142.5087  139.5418  168.8835 C.ar    1  UNL1        0.0363
     14 C         142.1450  140.2586  167.6171 C.ar    1  UNL1       -0.0011
     15 H         143.9491  140.0367  171.9697 H       1  UNL1        0.2922
     16 N         141.0013  145.3573  160.1027 N.am    1  UNL1       -0.2743
     17 C         139.8588  146.0253  160.8088 C.3     1  UNL1        0.0957
     18 C         139.8516  145.5501  162.2316 C.3     1  UNL1        0.0468
     19 C         140.9896  144.5883  162.4048 C.3     1  UNL1        0.1368
     20 C         141.7001  144.4691  161.0891 C.2     1  UNL1        0.2404
     21 O         142.8990  143.6123  160.8089 O.2     1  UNL1       -0.2734
     22 C         141.3786  145.5445  158.6631 C.3     1  UNL1        0.1202
     23 C         137.3040  144.6432  154.3521 C.3     1  UNL1        0.0310
     24 C         138.3226  144.8685  155.4298 C.ar    1  UNL1       -0.0219
     25 C         138.8059  143.7151  156.2580 C.ar    1  UNL1       -0.0045
     26 C         139.8246  143.9404  157.3358 C.ar    1  UNL1       -0.0029
     27 C         140.3599  145.3192  157.5853 C.ar    1  UNL1       -0.0024
     28 C         139.8766  146.4726  156.7571 C.ar    1  UNL1       -0.0029
     29 C         138.8580  146.2473  155.6794 C.ar    1  UNL1       -0.0045
@<TRIPOS>BOND
     1    23    24    1
     2    24    25   ar
     3    25    26   ar
     4    26    27   ar
     5    27    22    1
     6    22    16    1
     7    16    17    1
     8    17    18    1
     9    18    19    1
    10    19     1    1
    11     1     2    1
    12     2     3    1
    13     3     4    1
    14     4     8    1
    15     8     9   ar
    16     9    10   ar
    17    10    11   ar
    18    11    12    1
    19    11    13   ar
    20    13    14   ar
    21     4     5    1
    22     5     6    1
    23     5     7    1
    24    19    20    1
    25    20    21    2
    26    27    28   ar
    27    28    29   ar
    28    29    24   ar
    29    20    16   am
    30     7     1    1
    31    14     8   ar
    32    12    15    1
@<TRIPOS>MOLECULE
*****
 29 32 0 0 0
SMALL
GASTEIGER

@<TRIPOS>ATOM
      1 N         141.2337  138.8222  162.2366 N.3     1  UNL1       -0.2641
      2 C         141.2811  137.6563  163.1792 C.3     1  UNL1        0.0730
      3 C         141.2659  137.8888  164.6610 C.3     1  UNL1        0.0245
      4 C         141.2033  139.2871  165.2002 C.3     1  UNL1        0.0577
      5 C         141.1560  140.4531  164.2576 C.3     1  UNL1        0.1808
      6 F         141.0934  141.8514  164.7968 F       1  UNL1       -0.2354
      7 C         141.1712  140.2205  162.7758 C.3     1  UNL1        0.1084
      8 C         141.1881  139.5196  166.6820 C.ar    1  UNL1       -0.0196
      9 C         142.4503  139.3675  167.4781 C.ar    1  UNL1       -0.0011
     10 C         142.4351  139.6000  168.9599 C.ar    1  UNL1        0.0363
     11 C         141.1576  139.9846  169.6456 C.ar    1  UNL1        0.1337
     12 O         141.1424  140.2171  171.1274 O.3     1  UNL1       -0.5055
     13 C         139.8954  140.1368  168.8495 C.ar    1  UNL1        0.0363
     14 C         139.9106  139.9043  167.3678 C.ar    1  UNL1       -0.0011
     15 H         141.9308  140.1221  171.6246 H       1  UNL1        0.2922
     16 N         141.9655  137.9500  158.5259 N.am    1  UNL1       -0.2743
     17 C         140.5793  138.5138  158.4232 C.3     1  UNL1        0.0957
     18 C         140.1364  138.9092  159.8008 C.3     1  UNL1        0.0468
     19 C         141.2490  138.5897  160.7549 C.3     1  UNL1        0.1368
     20 C         142.3793  137.9969  159.9670 C.2     1  UNL1        0.2404
     21 O         143.6930  137.5325  160.5225 O.2     1  UNL1       -0.2734
     22 C         142.7926  137.4305  157.3875 C.3     1  UNL1        0.1202
     23 C         141.7537  131.9483  155.1815 C.3     1  UNL1        0.0310
     24 C         142.0135  133.3188  155.7330 C.ar    1  UNL1       -0.0219
     25 C         141.2703  134.5010  155.1852 C.ar    1  UNL1       -0.0045
     26 C         141.5300  135.8715  155.7367 C.ar    1  UNL1       -0.0029
     27 C         142.5329  136.0599  156.8360 C.ar    1  UNL1       -0.0024
     28 C         143.2761  134.8778  157.3839 C.ar    1  UNL1       -0.0029
     29 C         143.0163  133.5073  156.8324 C.ar    1  UNL1       -0.0045
@<TRIPOS>BOND
     1    23    24    1
     2    24    25   ar
     3    25    26   ar
     4    26    27   ar
     5    27    22    1
     6    22    16    1
     7    16    17    1
     8    17    18    1
     9    18    19    1
    10    19     1    1
    11     1     2    1
    12     2     3    1
    13     3     4    1
    14     4     8    1
    15     8     9   ar
    16     9    10   ar
    17    10    11   ar
    18    11    12    1
    19    11    13   ar
    20    13    14   ar
    21     4     5    1
    22     5     6    1
    23     5     7    1
    24    19    20    1
    25    20    21    2
    26    27    28   ar
    27    28    29   ar
    28    29    24   ar
    29    20    16   am
    30     7     1    1
    31    14     8   ar
    32    12    15    1
@<TRIPOS>MOLECULE
*****
 29 32 0 0 0
SMALL
GASTEIGER

@<TRIPOS>ATOM
      1 N         142.9740  141.3851  163.2364 N.3     1  UNL1       -0.2641
      2 C         141.7887  140.6427  163.7786 C.3     1  UNL1        0.0730
      3 C         141.4207  140.7728  165.2270 C.3     1  UNL1        0.0245
      4 C         142.2378  141.6453  166.1331 C.3     1  UNL1        0.0577
      5 C         143.4232  142.3877  165.5909 C.3     1  UNL1        0.1808
      6 F         144.2404  143.2601  166.4970 F       1  UNL1       -0.2354
      7 C         143.7912  142.2575  164.1425 C.3     1  UNL1        0.1084
      8 C         141.8698  141.7753  167.5814 C.ar    1  UNL1       -0.0196
      9 C         142.6194  140.9933  168.6189 C.ar    1  UNL1       -0.0011
     10 C         142.2513  141.1233  170.0672 C.ar    1  UNL1        0.0363
     11 C         141.1336  142.0355  170.4779 C.ar    1  UNL1        0.1337
     12 O         140.7655  142.1656  171.9262 O.3     1  UNL1       -0.5055
     13 C         140.3840  142.8176  169.4404 C.ar    1  UNL1        0.0363
     14 C         140.7520  142.6875  167.9922 C.ar    1  UNL1       -0.0011
     15 H         141.2338  141.6771  172.5743 H       1  UNL1        0.2922
     16 N         143.8669  141.7997  159.4819 N.am    1  UNL1       -0.2743
     17 C         143.9501  140.3101  159.6368 C.3     1  UNL1        0.0957
     18 C         143.6257  139.9734  161.0622 C.3     1  UNL1        0.0468
     19 C         143.3421  141.2551  161.7882 C.3     1  UNL1        0.1368
     20 C         143.4911  142.3838  160.8116 C.2     1  UNL1        0.2404
     21 O         143.2982  143.8407  161.1117 O.2     1  UNL1       -0.2734
     22 C         144.1157  142.5701  158.2192 C.3     1  UNL1        0.1202
     23 C         149.1941  141.7216  155.1386 C.3     1  UNL1        0.0310
     24 C         147.9245  141.9337  155.9088 C.ar    1  UNL1       -0.0219
     25 C         146.6518  141.2863  155.4497 C.ar    1  UNL1       -0.0045
     26 C         145.3822  141.4984  156.2198 C.ar    1  UNL1       -0.0029
     27 C         145.3853  142.3580  157.4491 C.ar    1  UNL1       -0.0024
     28 C         146.6581  143.0054  157.9082 C.ar    1  UNL1       -0.0029
     29 C         147.9277  142.7933  157.1380 C.ar    1  UNL1       -0.0045
@<TRIPOS>BOND
     1    23    24    1
     2    24    25   ar
     3    25    26   ar
     4    26    27   ar
     5    27    22    1
     6    22    16    1
     7    16    17    1
     8    17    18    1
     9    18    19    1
    10    19     1    1
    11     1     2    1
    12     2     3    1
    13     3     4    1
    14     4     8    1
    15     8     9   ar
    16     9    10   ar
    17    10    11   ar
    18    11    12    1
    19    11    13   ar
    20    13    14   ar
    21     4     5    1
    22     5     6    1
    23     5     7    1
    24    19    20    1
    25    20    21    2
    26    27    28   ar
    27    28    29   ar
    28    29    24   ar
    29    20    16   am
    30     7     1    1
    31    14     8   ar
    32    12    15    1
@<TRIPOS>MOLECULE
*****
 29 32 0 0 0
SMALL
GASTEIGER

@<TRIPOS>ATOM
      1 N         140.3377  143.5048  161.7973 N.3     1  UNL1       -0.2641
      2 C         141.4855  142.7413  162.3885 C.3     1  UNL1        0.0730
      3 C         141.3597  142.1375  163.7559 C.3     1  UNL1        0.0245
      4 C         140.0861  142.2972  164.5320 C.3     1  UNL1        0.0577
      5 C         138.9382  143.0607  163.9407 C.3     1  UNL1        0.1808
      6 F         137.6646  143.2204  164.7168 F       1  UNL1       -0.2354
      7 C         139.0641  143.6645  162.5734 C.3     1  UNL1        0.1084
      8 C         139.9603  141.6934  165.8993 C.ar    1  UNL1       -0.0196
      9 C         139.3188  140.3482  166.0690 C.ar    1  UNL1       -0.0011
     10 C         139.1930  139.7444  167.4364 C.ar    1  UNL1        0.0363
     11 C         139.7087  140.4860  168.6340 C.ar    1  UNL1        0.1337
     12 O         139.5829  139.8822  170.0013 O.3     1  UNL1       -0.5055
     13 C         140.3502  141.8312  168.4643 C.ar    1  UNL1        0.0363
     14 C         140.4760  142.4350  167.0970 C.ar    1  UNL1       -0.0011
     15 H         139.1822  139.0418  170.1073 H       1  UNL1        0.2922
     16 N         140.0777  144.6240  158.0898 N.am    1  UNL1       -0.2743
     17 C         141.2365  145.4514  158.5618 C.3     1  UNL1        0.0957
     18 C         141.4750  145.1328  160.0081 C.3     1  UNL1        0.0468
     19 C         140.4635  144.1085  160.4300 C.3     1  UNL1        0.1368
     20 C         139.6000  143.7941  159.2445 C.2     1  UNL1        0.2404
     21 O         138.4590  142.8207  159.2181 O.2     1  UNL1       -0.2734
     22 C         139.4983  144.6262  156.7063 C.3     1  UNL1        0.1202
     23 C         140.1146  149.4583  153.2033 C.3     1  UNL1        0.0310
     24 C         139.9605  148.2503  154.0790 C.ar    1  UNL1       -0.0219
     25 C         139.0420  148.2952  155.2640 C.ar    1  UNL1       -0.0045
     26 C         138.8879  147.0872  156.1397 C.ar    1  UNL1       -0.0029
     27 C         139.6524  145.8342  155.8305 C.ar    1  UNL1       -0.0024
     28 C         140.5709  145.7893  154.6455 C.ar    1  UNL1       -0.0029
     29 C         140.7250  146.9973  153.7698 C.ar    1  UNL1       -0.0045
@<TRIPOS>BOND
     1    23    24    1
     2    24    25   ar
     3    25    26   ar
     4    26    27   ar
     5    27    22    1
     6    22    16    1
     7    16    17    1
     8    17    18    1
     9    18    19    1
    10    19     1    1
    11     1     2    1
    12     2     3    1
    13     3     4    1
    14     4     8    1
    15     8     9   ar
    16     9    10   ar
    17    10    11   ar
    18    11    12    1
    19    11    13   ar
    20    13    14   ar
    21     4     5    1
    22     5     6    1
    23     5     7    1
    24    19    20    1
    25    20    21    2
    26    27    28   ar
    27    28    29   ar
    28    29    24   ar
    29    20    16   am
    30     7     1    1
    31    14     8   ar
    32    12    15    1
@<TRIPOS>MOLECULE
*****
 29 32 0 0 0
SMALL
GASTEIGER

@<TRIPOS>ATOM
      1 N         141.8640  139.3237  162.6975 N.3     1  UNL1       -0.2641
      2 C         141.8468  138.1055  163.5725 C.3     1  UNL1        0.0730
      3 C         141.5974  138.2432  165.0452 C.3     1  UNL1        0.0245
      4 C         141.3652  139.5992  165.6430 C.3     1  UNL1        0.0577
      5 C         141.3823  140.8175  164.7680 C.3     1  UNL1        0.1808
      6 F         141.1500  142.1735  165.3658 F       1  UNL1       -0.2354
      7 C         141.6317  140.6797  163.2953 C.3     1  UNL1        0.1084
      8 C         141.1158  139.7369  167.1157 C.ar    1  UNL1       -0.0196
      9 C         139.7424  140.0747  167.6154 C.ar    1  UNL1       -0.0011
     10 C         139.4930  140.2124  169.0881 C.ar    1  UNL1        0.0363
     11 C         140.6171  140.0123  170.0610 C.ar    1  UNL1        0.1337
     12 O         140.3677  140.1501  171.5337 O.3     1  UNL1       -0.5055
     13 C         141.9905  139.6746  169.5613 C.ar    1  UNL1        0.0363
     14 C         142.2399  139.5369  168.0887 C.ar    1  UNL1       -0.0011
     15 H         139.5098  140.3611  171.8459 H       1  UNL1        0.2922
     16 N         141.7971  138.7220  158.8636 N.am    1  UNL1       -0.2743
     17 C         143.1971  139.2261  159.0535 C.3     1  UNL1        0.0957
     18 C         143.3925  139.5129  160.5129 C.3     1  UNL1        0.0468
     19 C         142.1133  139.1860  161.2249 C.3     1  UNL1        0.1368
     20 C         141.1274  138.6972  160.2057 C.2     1  UNL1        0.2404
     21 O         139.7190  138.2602  160.4801 O.2     1  UNL1       -0.2734
     22 C         141.1760  138.3142  157.5606 C.3     1  UNL1        0.1202
     23 C         142.9141  133.2431  154.8655 C.3     1  UNL1        0.0310
     24 C         142.4796  134.5109  155.5393 C.ar    1  UNL1       -0.0219
     25 C         143.2956  135.0818  156.6610 C.ar    1  UNL1       -0.0045
     26 C         142.8610  136.3496  157.3348 C.ar    1  UNL1       -0.0029
     27 C         141.6106  137.0464  156.8868 C.ar    1  UNL1       -0.0024
     28 C         140.7946  136.4755  155.7652 C.ar    1  UNL1       -0.0029
     29 C         141.2291  135.2078  155.0914 C.ar    1  UNL1       -0.0045
@<TRIPOS>BOND
     1    23    24    1
     2    24    25   ar
     3    25    26   ar
     4    26    27   ar
     5    27    22    1
     6    22    16    1
     7    16    17    1
     8    17    18    1
     9    18    19    1
    10    19     1    1
    11     1     2    1
    12     2     3    1
    13     3     4    1
    14     4     8    1
    15     8     9   ar
    16     9    10   ar
    17    10    11   ar
    18    11    12    1
    19    11    13   ar
    20    13    14   ar
    21     4     5    1
    22     5     6    1
    23     5     7    1
    24    19    20    1
    25    20    21    2
    26    27    28   ar
    27    28    29   ar
    28    29    24   ar
    29    20    16   am
    30     7     1    1
    31    14     8   ar
    32    12    15    1
@<TRIPOS>MOLECULE
*****
 29 32 0 0 0
SMALL
GASTEIGER

@<TRIPOS>ATOM
      1 N         142.6962  140.2562  163.1552 N.3     1  UNL1       -0.2641
      2 C         143.3630  141.1399  164.1672 C.3     1  UNL1        0.0730
      3 C         142.9507  141.0741  165.6080 C.3     1  UNL1        0.0245
      4 C         141.8716  140.1246  166.0367 C.3     1  UNL1        0.0577
      5 C         141.2046  139.2407  165.0246 C.3     1  UNL1        0.1808
      6 F         140.1255  138.2912  165.4532 F       1  UNL1       -0.2354
      7 C         141.6170  139.3066  163.5839 C.3     1  UNL1        0.1084
      8 C         141.4592  140.0588  167.4774 C.ar    1  UNL1       -0.0196
      9 C         142.4172  139.5406  168.5088 C.ar    1  UNL1       -0.0011
     10 C         142.0049  139.4748  169.9495 C.ar    1  UNL1        0.0363
     11 C         140.6345  139.9272  170.3587 C.ar    1  UNL1        0.1337
     12 O         140.2222  139.8614  171.7995 O.3     1  UNL1       -0.5055
     13 C         139.6765  140.4453  169.3274 C.ar    1  UNL1        0.0363
     14 C         140.0888  140.5111  167.8867 C.ar    1  UNL1       -0.0011
     15 H         140.8207  139.5377  172.4437 H       1  UNL1        0.2922
     16 N         143.6072  141.1608  159.4922 N.am    1  UNL1       -0.2743
     17 C         143.8788  139.6856  159.5026 C.3     1  UNL1        0.0957
     18 C         143.5706  139.1671  160.8761 C.3     1  UNL1        0.0468
     19 C         143.1085  140.3219  161.7145 C.3     1  UNL1        0.1368
     20 C         143.1311  141.5540  160.8593 C.2     1  UNL1        0.2404
     21 O         142.7453  142.9367  161.2946 O.2     1  UNL1       -0.2734
     22 C         143.7810  142.0811  158.3206 C.3     1  UNL1        0.1202
     23 C         148.8210  141.8816  155.0711 C.3     1  UNL1        0.0310
     24 C         147.5610  141.9315  155.8835 C.ar    1  UNL1       -0.0219
     25 C         147.4963  142.7845  157.1156 C.ar    1  UNL1       -0.0045
     26 C         146.2363  142.8344  157.9280 C.ar    1  UNL1       -0.0029
     27 C         145.0410  142.0312  157.5082 C.ar    1  UNL1       -0.0024
     28 C         145.1057  141.1782  156.2761 C.ar    1  UNL1       -0.0029
     29 C         146.3657  141.1284  155.4638 C.ar    1  UNL1       -0.0045
@<TRIPOS>BOND
     1    23    24    1
     2    24    25   ar
     3    25    26   ar
     4    26    27   ar
     5    27    22    1
     6    22    16    1
     7    16    17    1
     8    17    18    1
     9    18    19    1
    10    19     1    1
    11     1     2    1
    12     2     3    1
    13     3     4    1
    14     4     8    1
    15     8     9   ar
    16     9    10   ar
    17    10    11   ar
    18    11    12    1
    19    11    13   ar
    20    13    14   ar
    21     4     5    1
    22     5     6    1
    23     5     7    1
    24    19    20    1
    25    20    21    2
    26    27    28   ar
    27    28    29   ar
    28    29    24   ar
    29    20    16   am
    30     7     1    1
    31    14     8   ar
    32    12    15    1
@<TRIPOS>MOLECULE
*****
 29 32 0 0 0
SMALL
GASTEIGER

@<TRIPOS>ATOM
      1 N         141.2455  143.2437  162.5843 N.3     1  UNL1       -0.2641
      2 C         139.8280  143.0298  163.0260 C.3     1  UNL1        0.0730
      3 C         139.5386  142.5859  164.4293 C.3     1  UNL1        0.0245
      4 C         140.6666  142.3559  165.3909 C.3     1  UNL1        0.0577
      5 C         142.0841  142.5698  164.9492 C.3     1  UNL1        0.1808
      6 F         143.2121  142.3398  165.9108 F       1  UNL1       -0.2354
      7 C         142.3735  143.0137  163.5459 C.3     1  UNL1        0.1084
      8 C         140.3772  141.9121  166.7942 C.ar    1  UNL1       -0.0196
      9 C         139.8971  140.5151  167.0550 C.ar    1  UNL1       -0.0011
     10 C         139.6077  140.0712  168.4583 C.ar    1  UNL1        0.0363
     11 C         139.7984  141.0244  169.6007 C.ar    1  UNL1        0.1337
     12 O         139.5090  140.5806  171.0040 O.3     1  UNL1       -0.5055
     13 C         140.2784  142.4214  169.3399 C.ar    1  UNL1        0.0363
     14 C         140.5678  142.8652  167.9367 C.ar    1  UNL1       -0.0011
     15 H         139.2091  139.7079  171.1669 H       1  UNL1        0.2922
     16 N         141.4314  144.8795  159.0693 N.am    1  UNL1       -0.2743
     17 C         142.5291  143.8617  158.9738 C.3     1  UNL1        0.0957
     18 C         142.5931  143.1250  160.2789 C.3     1  UNL1        0.0468
     19 C         141.5349  143.6875  161.1811 C.3     1  UNL1        0.1368
     20 C         140.8169  144.7718  160.4335 C.2     1  UNL1        0.2404
     21 O         139.6835  145.6026  160.9579 O.2     1  UNL1       -0.2734
     22 C         141.0203  145.8368  157.9902 C.3     1  UNL1        0.1202
     23 C         136.8185  144.2490  154.0122 C.3     1  UNL1        0.0310
     24 C         137.8689  144.6460  155.0067 C.ar    1  UNL1       -0.0219
     25 C         138.4806  143.6118  155.9047 C.ar    1  UNL1       -0.0045
     26 C         139.5310  144.0087  156.8992 C.ar    1  UNL1       -0.0029
     27 C         139.9698  145.4398  156.9957 C.ar    1  UNL1       -0.0024
     28 C         139.3582  146.4740  156.0977 C.ar    1  UNL1       -0.0029
     29 C         138.3078  146.0770  155.1032 C.ar    1  UNL1       -0.0045
@<TRIPOS>BOND
     1    23    24    1
     2    24    25   ar
     3    25    26   ar
     4    26    27   ar
     5    27    22    1
     6    22    16    1
     7    16    17    1
     8    17    18    1
     9    18    19    1
    10    19     1    1
    11     1     2    1
    12     2     3    1
    13     3     4    1
    14     4     8    1
    15     8     9   ar
    16     9    10   ar
    17    10    11   ar
    18    11    12    1
    19    11    13   ar
    20    13    14   ar
    21     4     5    1
    22     5     6    1
    23     5     7    1
    24    19    20    1
    25    20    21    2
    26    27    28   ar
    27    28    29   ar
    28    29    24   ar
    29    20    16   am
    30     7     1    1
    31    14     8   ar
    32    12    15    1
@<TRIPOS>MOLECULE
*****
 29 32 0 0 0
SMALL
GASTEIGER

@<TRIPOS>ATOM
      1 N         142.7402  139.9029  161.9291 N.3     1  UNL1       -0.2641
      2 C         141.6180  140.6447  162.5927 C.3     1  UNL1        0.0730
      3 C         141.6456  140.8778  164.0742 C.3     1  UNL1        0.0245
      4 C         142.7955  140.3691  164.8921 C.3     1  UNL1        0.0577
      5 C         143.9178  139.6273  164.2285 C.3     1  UNL1        0.1808
      6 F         145.0677  139.1187  165.0465 F       1  UNL1       -0.2354
      7 C         143.8901  139.3943  162.7470 C.3     1  UNL1        0.1084
      8 C         142.8232  140.6022  166.3737 C.ar    1  UNL1       -0.0196
      9 C         142.6060  139.4567  167.3173 C.ar    1  UNL1       -0.0011
     10 C         142.6336  139.6898  168.7989 C.ar    1  UNL1        0.0363
     11 C         142.8785  141.0685  169.3366 C.ar    1  UNL1        0.1337
     12 O         142.9062  141.3016  170.8182 O.3     1  UNL1       -0.5055
     13 C         143.0957  142.2140  168.3930 C.ar    1  UNL1        0.0363
     14 C         143.0681  141.9810  166.9115 C.ar    1  UNL1       -0.0011
     15 H         142.7705  140.5860  171.4076 H       1  UNL1        0.2922
     16 N         142.0290  138.9285  158.2399 N.am    1  UNL1       -0.2743
     17 C         143.3110  139.6938  158.0955 C.3     1  UNL1        0.0957
     18 C         143.7335  140.1520  159.4600 C.3     1  UNL1        0.0468
     19 C         142.7126  139.6699  160.4476 C.3     1  UNL1        0.1368
     20 C         141.6592  138.9137  159.6936 C.2     1  UNL1        0.2404
     21 O         140.4485  138.2578  160.2886 O.2     1  UNL1       -0.2734
     22 C         141.2531  138.2900  157.1262 C.3     1  UNL1        0.1202
     23 C         142.8277  132.8675  155.0971 C.3     1  UNL1        0.0310
     24 C         142.4340  134.2232  155.6044 C.ar    1  UNL1       -0.0219
     25 C         143.2494  134.8902  156.6721 C.ar    1  UNL1       -0.0045
     26 C         142.8557  136.2459  157.1794 C.ar    1  UNL1       -0.0029
     27 C         141.6468  136.9344  156.6189 C.ar    1  UNL1       -0.0024
     28 C         140.8314  136.2673  155.5512 C.ar    1  UNL1       -0.0029
     29 C         141.2250  134.9117  155.0439 C.ar    1  UNL1       -0.0045
@<TRIPOS>BOND
     1    23    24    1
     2    24    25   ar
     3    25    26   ar
     4    26    27   ar
     5    27    22    1
     6    22    16    1
     7    16    17    1
     8    17    18    1
     9    18    19    1
    10    19     1    1
    11     1     2    1
    12     2     3    1
    13     3     4    1
    14     4     8    1
    15     8     9   ar
    16     9    10   ar
    17    10    11   ar
    18    11    12    1
    19    11    13   ar
    20    13    14   ar
    21     4     5    1
    22     5     6    1
    23     5     7    1
    24    19    20    1
    25    20    21    2
    26    27    28   ar
    27    28    29   ar
    28    29    24   ar
    29    20    16   am
    30     7     1    1
    31    14     8   ar
    32    12    15    1
@<TRIPOS>MOLECULE
*****
 29 32 0 0 0
SMALL
GASTEIGER

@<TRIPOS>ATOM
      1 N         140.3572  139.7458  159.7390 N.3     1  UNL1       -0.2641
      2 C         139.8146  141.1004  159.3915 C.3     1  UNL1        0.0730
      3 C         139.4643  142.0700  160.4810 C.3     1  UNL1        0.0245
      4 C         139.6565  141.6852  161.9180 C.3     1  UNL1        0.0577
      5 C         140.1991  140.3305  162.2655 C.3     1  UNL1        0.1808
      6 F         140.3914  139.9456  163.7025 F       1  UNL1       -0.2354
      7 C         140.5494  139.3609  161.1759 C.3     1  UNL1        0.1084
      8 C         139.3062  142.6548  163.0075 C.ar    1  UNL1       -0.0196
      9 C         140.3918  143.4001  163.7259 C.ar    1  UNL1       -0.0011
     10 C         140.0414  144.3698  164.8154 C.ar    1  UNL1        0.0363
     11 C         138.6055  144.5941  165.1865 C.ar    1  UNL1        0.1337
     12 O         138.2551  145.5638  166.2760 O.3     1  UNL1       -0.5055
     13 C         137.5199  143.8488  164.4681 C.ar    1  UNL1        0.0363
     14 C         137.8702  142.8792  163.3787 C.ar    1  UNL1       -0.0011
     15 H         138.9333  146.0293  166.7247 H       1  UNL1        0.2922
     16 N         141.9547  137.2627  157.2195 N.am    1  UNL1       -0.2743
     17 C         140.5387  137.3052  156.7263 C.3     1  UNL1        0.0957
     18 C         139.7679  138.2406  157.6101 C.3     1  UNL1        0.0468
     19 C         140.7075  138.7762  158.6495 C.3     1  UNL1        0.1368
     20 C         142.0590  138.1718  158.4081 C.2     1  UNL1        0.2404
     21 O         143.2974  138.4310  159.2138 O.2     1  UNL1       -0.2734
     22 C         143.0704  136.4533  156.6280 C.3     1  UNL1        0.1202
     23 C         142.4888  130.5088  156.0581 C.3     1  UNL1        0.0310
     24 C         142.6342  131.9949  156.2006 C.ar    1  UNL1       -0.0219
     25 C         143.5517  132.5622  157.2428 C.ar    1  UNL1       -0.0045
     26 C         143.6971  134.0483  157.3853 C.ar    1  UNL1       -0.0029
     27 C         142.9250  134.9671  156.4855 C.ar    1  UNL1       -0.0024
     28 C         142.0075  134.3998  155.4432 C.ar    1  UNL1       -0.0029
     29 C         141.8621  132.9137  155.3008 C.ar    1  UNL1       -0.0045
@<TRIPOS>BOND
     1    23    24    1
     2    24    25   ar
     3    25    26   ar
     4    26    27   ar
     5    27    22    1
     6    22    16    1
     7    16    17    1
     8    17    18    1
     9    18    19    1
    10    19     1    1
    11     1     2    1
    12     2     3    1
    13     3     4    1
    14     4     8    1
    15     8     9   ar
    16     9    10   ar
    17    10    11   ar
    18    11    12    1
    19    11    13   ar
    20    13    14   ar
    21     4     5    1
    22     5     6    1
    23     5     7    1
    24    19    20    1
    25    20    21    2
    26    27    28   ar
    27    28    29   ar
    28    29    24   ar
    29    20    16   am
    30     7     1    1
    31    14     8   ar
    32    12    15    1
