@<TRIPOS>MOLECULE
*****
 36 38 0 0 0
SMALL
GASTEIGER

@<TRIPOS>ATOM
      1 N         140.0393  139.7493  160.3674 N.am    1  UNL1       -0.2531
      2 C         139.0442  139.9399  159.2614 C.2     1  UNL1        0.3135
      3 O         137.5757  139.8302  159.5466 O.2     1  UNL1       -0.2518
      4 N         139.5176  140.2403  157.8701 N.am    1  UNL1       -0.2282
      5 C         140.9861  140.3500  157.5849 C.3     1  UNL1        0.1015
      6 C         141.4595  140.6504  156.1936 C.3     1  UNL1        0.0268
      7 C         140.4644  140.8410  155.0875 C.3     1  UNL1        0.0310
      8 C         138.9959  140.7313  155.3727 C.ar    1  UNL1        0.0098
      9 C         138.0008  140.9219  154.2667 C.ar    1  UNL1        0.0013
     10 C         136.5323  140.8122  154.5519 C.ar    1  UNL1        0.0643
     11 CA        136.0588  140.5118  155.9432 C.ar    1  UNL1        0.1260
     12 N         137.0539  140.3212  157.0492 N.ar    1  UNL1       -0.2274
     13 C         138.5225  140.4309  156.7640 C.ar    1  UNL1        0.1345
     14 H         141.0032  139.8213  160.1802 H       1  UNL1        0.1578
     15 C         138.8336  140.2695  164.1125 C.ar    1  UNL1        0.1524
     16 C         139.3070  140.5699  162.7213 C.ar    1  UNL1        0.0721
     17 C         139.5659  139.4489  161.7587 C.ar    1  UNL1        0.1384
     18 N         139.3514  138.0276  162.1875 N.ar    1  UNL1       -0.2281
     19 C         138.8780  137.7273  163.5788 C.ar    1  UNL1        0.1136
     20 C         138.6191  138.8482  164.5413 C.ar    1  UNL1        0.1215
     21 C         138.1457  138.5478  165.9325 C.1     1  UNL1        0.1051
     22 N         137.6723  138.2474  167.3239 N.1     1  UNL1       -0.1907
     23 O         138.5748  141.3905  165.0750 O.3     1  UNL1       -0.4746
     24 C         137.8266  142.6094  164.6230 C.3     1  UNL1        0.2065
     25 C         138.5767  143.8514  164.2420 C.3     1  UNL1        0.0551
     26 C         139.4864  143.6632  165.4197 C.3     1  UNL1        0.0051
     27 C         137.6669  144.0397  163.0644 C.3     1  UNL1        0.0051
     28 C         139.3267  145.0933  163.8612 C.3     1  UNL1        0.0757
     29 C         141.1254  144.0750  162.2871 C.3     1  UNL1        0.0897
     30 N         140.1060  145.1357  162.5802 N.3     1  UNL1       -0.2702
     31 C         139.8659  146.2386  161.5924 C.3     1  UNL1        0.0897
     32 C         135.5371  141.0028  153.4458 C.3     1  UNL1        0.3425
     33 F         135.4553  140.0036  152.3301 F       1  UNL1       -0.1932
     34 F         134.6238  142.1928  153.4555 F       1  UNL1       -0.1932
     35 C         134.5903  140.4021  156.2284 C.2     1  UNL1        0.2530
     36 O         134.0322  139.1386  156.8134 O.2     1  UNL1       -0.2815
@<TRIPOS>BOND
     1    29    30    1
     2    30    31    1
     3    30    28    1
     4    28    25    1
     5    25    26    1
     6    25    27    1
     7    25    24    1
     8    24    23    1
     9    23    15    1
    10    15    16   ar
    11    16    17   ar
    12    17     1    1
    13     1     2   am
    14     2     3    2
    15     2     4   am
    16     4     5    1
    17     5     6    1
    18     6     7    1
    19     7     8    1
    20     8     9   ar
    21     9    10   ar
    22    10    32    1
    23    32    33    1
    24    32    34    1
    25    10    11   ar
    26    11    35    1
    27    35    36    2
    28    11    12   ar
    29    12    13   ar
    30    17    18   ar
    31    18    19   ar
    32    19    20   ar
    33    20    21    1
    34    21    22    3
    35    20    15   ar
    36    13     4    1
    37    13     8   ar
    38     1    14    1
@<TRIPOS>MOLECULE
*****
 36 38 0 0 0
SMALL
GASTEIGER

@<TRIPOS>ATOM
      1 N         140.0296  138.5713  162.9173 N.am    1  UNL1       -0.2531
      2 C         140.5128  139.3411  164.1105 C.2     1  UNL1        0.3135
      3 O         141.7649  140.1617  164.0169 O.2     1  UNL1       -0.2518
      4 N         139.7439  139.2904  165.3975 N.am    1  UNL1       -0.2282
      5 C         138.4918  138.4697  165.4911 C.3     1  UNL1        0.1015
      6 C         137.7229  138.4190  166.7780 C.3     1  UNL1        0.0268
      7 C         138.2061  139.1889  167.9713 C.3     1  UNL1        0.0310
      8 C         139.4582  140.0095  167.8776 C.ar    1  UNL1        0.0098
      9 C         139.9413  140.7793  169.0709 C.ar    1  UNL1        0.0013
     10 C         141.1934  141.6000  168.9772 C.ar    1  UNL1        0.0643
     11 CA        141.9624  141.6507  167.6902 C.ar    1  UNL1        0.1260
     12 N         141.4792  140.8809  166.4970 N.ar    1  UNL1       -0.2274
     13 C         140.2270  140.0602  166.5907 C.ar    1  UNL1        0.1345
     14 H         139.2078  138.0327  162.9788 H       1  UNL1        0.1578
     15 C         141.2612  139.7336  159.3281 C.ar    1  UNL1        0.1524
     16 C         140.4923  139.6829  160.6150 C.ar    1  UNL1        0.0721
     17 C         140.7985  138.6220  161.6304 C.ar    1  UNL1        0.1384
     18 N         141.8737  137.6119  161.3587 N.ar    1  UNL1       -0.2281
     19 C         142.6426  137.6627  160.0717 C.ar    1  UNL1        0.1136
     20 C         142.3363  138.7235  159.0565 C.ar    1  UNL1        0.1215
     21 C         143.1052  138.7743  157.7696 C.1     1  UNL1        0.1051
     22 N         143.8741  138.8250  156.4826 N.1     1  UNL1       -0.1907
     23 O         140.9549  140.7944  158.3128 O.3     1  UNL1       -0.4746
     24 C         141.5383  142.1680  158.4640 C.3     1  UNL1        0.2065
     25 C         140.7538  143.2442  159.1545 C.3     1  UNL1        0.0551
     26 C         141.8152  143.3404  160.2100 C.3     1  UNL1        0.0051
     27 C         139.6925  143.1479  158.0989 C.3     1  UNL1        0.0051
     28 C         139.9695  144.3202  159.8450 C.3     1  UNL1        0.0757
     29 C         138.4789  142.7616  161.2937 C.3     1  UNL1        0.0897
     30 N         139.2712  144.0260  161.1394 N.3     1  UNL1       -0.2702
     31 C         139.3651  144.9961  162.2797 C.3     1  UNL1        0.0897
     32 C         141.6766  142.3698  170.1704 C.3     1  UNL1        0.3425
     33 F         141.6727  143.8696  170.1472 F       1  UNL1       -0.1932
     34 F         142.1638  141.6398  171.3870 F       1  UNL1       -0.1932
     35 C         143.2145  142.4713  167.5966 C.2     1  UNL1        0.2530
     36 O         143.8054  142.7876  166.2546 O.2     1  UNL1       -0.2815
@<TRIPOS>BOND
     1    29    30    1
     2    30    31    1
     3    30    28    1
     4    28    25    1
     5    25    26    1
     6    25    27    1
     7    25    24    1
     8    24    23    1
     9    23    15    1
    10    15    16   ar
    11    16    17   ar
    12    17     1    1
    13     1     2   am
    14     2     3    2
    15     2     4   am
    16     4     5    1
    17     5     6    1
    18     6     7    1
    19     7     8    1
    20     8     9   ar
    21     9    10   ar
    22    10    32    1
    23    32    33    1
    24    32    34    1
    25    10    11   ar
    26    11    35    1
    27    35    36    2
    28    11    12   ar
    29    12    13   ar
    30    17    18   ar
    31    18    19   ar
    32    19    20   ar
    33    20    21    1
    34    21    22    3
    35    20    15   ar
    36    13     4    1
    37    13     8   ar
    38     1    14    1
@<TRIPOS>MOLECULE
*****
 36 38 0 0 0
SMALL
GASTEIGER

@<TRIPOS>ATOM
      1 N         137.9085  140.0423  158.8557 N.am    1  UNL1       -0.2531
      2 C         138.3512  141.3702  158.3165 C.2     1  UNL1        0.3135
      3 O         139.4966  142.0959  158.9579 O.2     1  UNL1       -0.2518
      4 N         137.6486  141.9723  157.1359 N.am    1  UNL1       -0.2282
      5 C         136.5032  141.2465  156.4945 C.3     1  UNL1        0.1015
      6 C         135.8006  141.8486  155.3140 C.3     1  UNL1        0.0268
      7 C         136.2434  143.1764  154.7748 C.3     1  UNL1        0.0310
      8 C         137.3887  143.9022  155.4161 C.ar    1  UNL1        0.0098
      9 C         137.8315  145.2301  154.8769 C.ar    1  UNL1        0.0013
     10 C         138.9768  145.9559  155.5183 C.ar    1  UNL1        0.0643
     11 CA        139.6795  145.3538  156.6989 C.ar    1  UNL1        0.1260
     12 N         139.2367  144.0259  157.2381 N.ar    1  UNL1       -0.2274
     13 C         138.0913  143.3001  156.5967 C.ar    1  UNL1        0.1345
     14 H         137.1568  139.5659  158.4348 H       1  UNL1        0.1578
     15 C         138.7126  138.9534  162.5864 C.ar    1  UNL1        0.1524
     16 C         138.0100  139.5555  161.4058 C.ar    1  UNL1        0.0721
     17 C         138.6111  139.4402  160.0363 C.ar    1  UNL1        0.1384
     18 N         139.9148  138.7228  159.8475 N.ar    1  UNL1       -0.2281
     19 C         140.6174  138.1207  161.0281 C.ar    1  UNL1        0.1136
     20 C         140.0163  138.2360  162.3975 C.ar    1  UNL1        0.1215
     21 C         140.7189  137.6339  163.5781 C.1     1  UNL1        0.1051
     22 N         141.4215  137.0317  164.7587 N.1     1  UNL1       -0.1907
     23 O         138.1114  139.0686  163.9558 O.3     1  UNL1       -0.4746
     24 C         138.4261  140.2569  164.8154 C.3     1  UNL1        0.2065
     25 C         139.3820  140.1201  165.9633 C.3     1  UNL1        0.0551
     26 C         138.3998  139.2384  166.6760 C.3     1  UNL1        0.0051
     27 C         140.3641  141.0018  165.2507 C.3     1  UNL1        0.0051
     28 C         140.3377  139.9832  167.1112 C.3     1  UNL1        0.0757
     29 C         139.8135  140.2949  169.6367 C.3     1  UNL1        0.0897
     30 N         140.2032  140.8753  168.3095 N.3     1  UNL1       -0.2702
     31 C         140.4584  142.3478  168.1808 C.3     1  UNL1        0.0897
     32 C         139.4195  147.2837  154.9791 C.3     1  UNL1        0.3425
     33 F         138.5887  148.5080  155.2254 F       1  UNL1       -0.1932
     34 F         140.6932  147.3873  154.1935 F       1  UNL1       -0.1932
     35 C         140.8248  146.0796  157.3403 C.2     1  UNL1        0.2530
     36 O         142.2329  145.7802  156.9186 O.2     1  UNL1       -0.2815
@<TRIPOS>BOND
     1    29    30    1
     2    30    31    1
     3    30    28    1
     4    28    25    1
     5    25    26    1
     6    25    27    1
     7    25    24    1
     8    24    23    1
     9    23    15    1
    10    15    16   ar
    11    16    17   ar
    12    17     1    1
    13     1     2   am
    14     2     3    2
    15     2     4   am
    16     4     5    1
    17     5     6    1
    18     6     7    1
    19     7     8    1
    20     8     9   ar
    21     9    10   ar
    22    10    32    1
    23    32    33    1
    24    32    34    1
    25    10    11   ar
    26    11    35    1
    27    35    36    2
    28    11    12   ar
    29    12    13   ar
    30    17    18   ar
    31    18    19   ar
    32    19    20   ar
    33    20    21    1
    34    21    22    3
    35    20    15   ar
    36    13     4    1
    37    13     8   ar
    38     1    14    1
@<TRIPOS>MOLECULE
*****
 36 38 0 0 0
SMALL
GASTEIGER

@<TRIPOS>ATOM
      1 N         141.3593  145.2483  159.5102 N.am    1  UNL1       -0.2531
      2 C         140.3264  144.5074  158.7137 C.2     1  UNL1        0.3135
      3 O         139.7365  143.2363  159.2487 O.2     1  UNL1       -0.2518
      4 N         139.8836  145.0377  157.3823 N.am    1  UNL1       -0.2282
      5 C         140.4735  146.3088  156.8473 C.3     1  UNL1        0.1015
      6 C         140.0307  146.8390  155.5159 C.3     1  UNL1        0.0268
      7 C         138.9978  146.0982  154.7195 C.3     1  UNL1        0.0310
      8 C         138.4078  144.8271  155.2544 C.ar    1  UNL1        0.0098
      9 C         137.3749  144.0862  154.4580 C.ar    1  UNL1        0.0013
     10 C         136.7849  142.8152  154.9930 C.ar    1  UNL1        0.0643
     11 CA        137.2278  142.2849  156.3244 C.ar    1  UNL1        0.1260
     12 N         138.2607  143.0257  157.1209 N.ar    1  UNL1       -0.2274
     13 C         138.8507  144.2969  156.5858 C.ar    1  UNL1        0.1345
     14 H         141.7465  146.0825  159.1590 H       1  UNL1        0.1578
     15 C         141.4511  144.5006  163.4066 C.ar    1  UNL1        0.1524
     16 C         141.0082  145.0308  162.0752 C.ar    1  UNL1        0.0721
     17 C         141.8022  144.7181  160.8416 C.ar    1  UNL1        0.1384
     18 N         143.0391  143.8751  160.9394 N.ar    1  UNL1       -0.2281
     19 C         143.4819  143.3448  162.2709 C.ar    1  UNL1        0.1136
     20 C         142.6880  143.6576  163.5045 C.ar    1  UNL1        0.1215
     21 C         143.1309  143.1274  164.8359 C.1     1  UNL1        0.1051
     22 N         143.5738  142.5971  166.1673 N.1     1  UNL1       -0.1907
     23 O         140.6572  144.8134  164.6402 O.3     1  UNL1       -0.4746
     24 C         139.1611  144.7071  164.6163 C.3     1  UNL1        0.2065
     25 C         138.5075  143.3851  164.3417 C.3     1  UNL1        0.0551
     26 C         139.3436  142.7494  165.4125 C.3     1  UNL1        0.0051
     27 C         137.6714  144.0209  163.2709 C.3     1  UNL1        0.0051
     28 C         137.8539  142.0633  164.0671 C.3     1  UNL1        0.0757
     29 C         139.5460  141.2974  162.2504 C.3     1  UNL1        0.0897
     30 N         138.6270  140.9707  163.3901 N.3     1  UNL1       -0.2702
     31 C         138.4812  139.5512  163.8527 C.3     1  UNL1        0.0897
     32 C         135.7521  142.0743  154.1965 C.3     1  UNL1        0.3425
     33 F         134.3848  141.8461  154.7695 F       1  UNL1       -0.1932
     34 F         136.0866  141.5617  152.8270 F       1  UNL1       -0.1932
     35 C         136.6378  141.0138  156.8594 C.2     1  UNL1        0.2530
     36 O         137.3161  140.2866  157.9825 O.2     1  UNL1       -0.2815
@<TRIPOS>BOND
     1    29    30    1
     2    30    31    1
     3    30    28    1
     4    28    25    1
     5    25    26    1
     6    25    27    1
     7    25    24    1
     8    24    23    1
     9    23    15    1
    10    15    16   ar
    11    16    17   ar
    12    17     1    1
    13     1     2   am
    14     2     3    2
    15     2     4   am
    16     4     5    1
    17     5     6    1
    18     6     7    1
    19     7     8    1
    20     8     9   ar
    21     9    10   ar
    22    10    32    1
    23    32    33    1
    24    32    34    1
    25    10    11   ar
    26    11    35    1
    27    35    36    2
    28    11    12   ar
    29    12    13   ar
    30    17    18   ar
    31    18    19   ar
    32    19    20   ar
    33    20    21    1
    34    21    22    3
    35    20    15   ar
    36    13     4    1
    37    13     8   ar
    38     1    14    1
@<TRIPOS>MOLECULE
*****
 36 38 0 0 0
SMALL
GASTEIGER

@<TRIPOS>ATOM
      1 N         142.2128  137.6820  157.8353 N.am    1  UNL1       -0.2531
      2 C         142.6351  136.3287  157.3452 C.2     1  UNL1        0.3135
      3 O         143.5840  135.4990  158.1583 O.2     1  UNL1       -0.2518
      4 N         142.1084  135.8051  156.0420 N.am    1  UNL1       -0.2282
      5 C         141.1595  136.6348  155.2289 C.3     1  UNL1        0.1015
      6 C         140.6328  136.1111  153.9257 C.3     1  UNL1        0.0268
      7 C         141.0551  134.7578  153.4356 C.3     1  UNL1        0.0310
      8 C         142.0040  133.9281  154.2486 C.ar    1  UNL1        0.0098
      9 C         142.4263  132.5748  153.7585 C.ar    1  UNL1        0.0013
     10 C         143.3752  131.7451  154.5716 C.ar    1  UNL1        0.0643
     11 CA        143.9019  132.2687  155.8749 C.ar    1  UNL1        0.1260
     12 N         143.4796  133.6221  156.3650 N.ar    1  UNL1       -0.2274
     13 C         142.5306  134.4517  155.5518 C.ar    1  UNL1        0.1345
     14 H         141.5900  138.2266  157.3017 H       1  UNL1        0.1578
     15 C         142.7446  138.1801  161.7365 C.ar    1  UNL1        0.1524
     16 C         142.2179  137.6564  160.4333 C.ar    1  UNL1        0.0721
     17 C         142.7395  138.2057  159.1385 C.ar    1  UNL1        0.1384
     18 N         143.7877  139.2786  159.1471 N.ar    1  UNL1       -0.2281
     19 C         144.3144  139.8023  160.4504 C.ar    1  UNL1        0.1136
     20 C         143.7928  139.2530  161.7450 C.ar    1  UNL1        0.1215
     21 C         144.3195  139.7766  163.0482 C.1     1  UNL1        0.1051
     22 N         144.8461  140.3004  164.3515 N.1     1  UNL1       -0.1907
     23 O         142.2230  137.6308  163.0312 O.3     1  UNL1       -0.4746
     24 C         140.7753  137.2597  163.1595 C.3     1  UNL1        0.2065
     25 C         139.7681  138.2963  163.5611 C.3     1  UNL1        0.0551
     26 C         138.9593  137.9847  162.3369 C.3     1  UNL1        0.0051
     27 C         140.5769  138.6079  164.7853 C.3     1  UNL1        0.0051
     28 C         138.7610  139.3328  163.9627 C.3     1  UNL1        0.0757
     29 C         137.4011  141.3324  163.0127 C.3     1  UNL1        0.0897
     30 N         138.7166  140.6514  163.2493 N.3     1  UNL1       -0.2702
     31 C         139.9877  141.2892  162.7722 C.3     1  UNL1        0.0897
     32 C         143.7974  130.3918  154.0815 C.3     1  UNL1        0.3425
     33 F         143.3396  129.1574  154.8002 F       1  UNL1       -0.1932
     34 F         144.6775  130.2729  152.8726 F       1  UNL1       -0.1932
     35 C         144.8508  131.4391  156.6880 C.2     1  UNL1        0.2530
     36 O         145.6018  132.0598  157.8285 O.2     1  UNL1       -0.2815
@<TRIPOS>BOND
     1    29    30    1
     2    30    31    1
     3    30    28    1
     4    28    25    1
     5    25    26    1
     6    25    27    1
     7    25    24    1
     8    24    23    1
     9    23    15    1
    10    15    16   ar
    11    16    17   ar
    12    17     1    1
    13     1     2   am
    14     2     3    2
    15     2     4   am
    16     4     5    1
    17     5     6    1
    18     6     7    1
    19     7     8    1
    20     8     9   ar
    21     9    10   ar
    22    10    32    1
    23    32    33    1
    24    32    34    1
    25    10    11   ar
    26    11    35    1
    27    35    36    2
    28    11    12   ar
    29    12    13   ar
    30    17    18   ar
    31    18    19   ar
    32    19    20   ar
    33    20    21    1
    34    21    22    3
    35    20    15   ar
    36    13     4    1
    37    13     8   ar
    38     1    14    1
@<TRIPOS>MOLECULE
*****
 36 38 0 0 0
SMALL
GASTEIGER

@<TRIPOS>ATOM
      1 N         141.3797  142.7586  159.9068 N.am    1  UNL1       -0.2531
      2 C         140.9826  141.7916  160.9826 C.2     1  UNL1        0.3135
      3 O         141.7051  140.4842  161.1199 O.2     1  UNL1       -0.2518
      4 N         139.8630  142.1319  161.9210 N.am    1  UNL1       -0.2282
      5 C         139.1405  143.4393  161.7837 C.3     1  UNL1        0.1015
      6 C         138.0209  143.7796  162.7222 C.3     1  UNL1        0.0268
      7 C         137.6238  142.8126  163.7979 C.3     1  UNL1        0.0310
      8 C         138.3463  141.5052  163.9352 C.ar    1  UNL1        0.0098
      9 C         137.9492  140.5382  165.0109 C.ar    1  UNL1        0.0013
     10 C         138.6716  139.2309  165.1482 C.ar    1  UNL1        0.0643
     11 CA        139.7913  138.8905  164.2098 C.ar    1  UNL1        0.1260
     12 N         140.1884  139.8575  163.1340 N.ar    1  UNL1       -0.2274
     13 C         139.4659  141.1649  162.9968 C.ar    1  UNL1        0.1345
     14 H         140.9055  143.6166  159.8167 H       1  UNL1        0.1578
     15 C         143.3688  141.1707  156.8618 C.ar    1  UNL1        0.1524
     16 C         142.2492  141.5110  157.8003 C.ar    1  UNL1        0.0721
     17 C         142.4993  142.4182  158.9684 C.ar    1  UNL1        0.1384
     18 N         143.8689  142.9851  159.1980 N.ar    1  UNL1       -0.2281
     19 C         144.9885  142.6448  158.2595 C.ar    1  UNL1        0.1136
     20 C         144.7385  141.7376  157.0915 C.ar    1  UNL1        0.1215
     21 C         145.8580  141.3972  156.1530 C.1     1  UNL1        0.1051
     22 N         146.9777  141.0569  155.2146 N.1     1  UNL1       -0.1907
     23 O         143.1187  140.2635  155.6938 O.3     1  UNL1       -0.4746
     24 C         142.0934  139.1734  155.7968 C.3     1  UNL1        0.2065
     25 C         142.4372  137.8825  156.4790 C.3     1  UNL1        0.0551
     26 C         143.6810  137.7744  155.6476 C.3     1  UNL1        0.0051
     27 C         141.1934  137.9906  157.3103 C.3     1  UNL1        0.0051
     28 C         142.7809  136.5916  157.1611 C.3     1  UNL1        0.0757
     29 C         143.7399  134.2521  156.5634 C.3     1  UNL1        0.0897
     30 N         142.6734  135.2961  156.4127 N.3     1  UNL1       -0.2702
     31 C         141.4993  135.0445  155.5137 C.3     1  UNL1        0.0897
     32 C         138.2745  138.2639  166.2239 C.3     1  UNL1        0.3425
     33 F         138.0436  138.7521  167.6233 F       1  UNL1       -0.1932
     34 F         138.1084  136.8086  165.9002 F       1  UNL1       -0.1932
     35 C         140.5137  137.5832  164.3470 C.2     1  UNL1        0.2530
     36 O         140.9838  136.8539  163.1234 O.2     1  UNL1       -0.2815
@<TRIPOS>BOND
     1    29    30    1
     2    30    31    1
     3    30    28    1
     4    28    25    1
     5    25    26    1
     6    25    27    1
     7    25    24    1
     8    24    23    1
     9    23    15    1
    10    15    16   ar
    11    16    17   ar
    12    17     1    1
    13     1     2   am
    14     2     3    2
    15     2     4   am
    16     4     5    1
    17     5     6    1
    18     6     7    1
    19     7     8    1
    20     8     9   ar
    21     9    10   ar
    22    10    32    1
    23    32    33    1
    24    32    34    1
    25    10    11   ar
    26    11    35    1
    27    35    36    2
    28    11    12   ar
    29    12    13   ar
    30    17    18   ar
    31    18    19   ar
    32    19    20   ar
    33    20    21    1
    34    21    22    3
    35    20    15   ar
    36    13     4    1
    37    13     8   ar
    38     1    14    1
@<TRIPOS>MOLECULE
*****
 36 38 0 0 0
SMALL
GASTEIGER

@<TRIPOS>ATOM
      1 N         140.4322  144.7769  160.6150 N.am    1  UNL1       -0.2531
      2 C         140.3510  143.3838  161.1653 C.2     1  UNL1        0.3135
      3 O         140.5195  142.2057  160.2523 O.2     1  UNL1       -0.2518
      4 N         140.1013  143.1689  162.6287 N.am    1  UNL1       -0.2282
      5 C         139.9328  144.3470  163.5418 C.3     1  UNL1        0.1015
      6 C         139.6832  144.1321  165.0051 C.3     1  UNL1        0.0268
      7 C         139.6020  142.7390  165.5554 C.3     1  UNL1        0.0310
      8 C         139.7706  141.5609  164.6424 C.ar    1  UNL1        0.0098
      9 C         139.6894  140.1679  165.1927 C.ar    1  UNL1        0.0013
     10 C         139.8579  138.9898  164.2797 C.ar    1  UNL1        0.0643
     11 CA        140.1076  139.2047  162.8163 C.ar    1  UNL1        0.1260
     12 N         140.1887  140.5978  162.2660 N.ar    1  UNL1       -0.2274
     13 C         140.0202  141.7759  163.1791 C.ar    1  UNL1        0.1345
     14 H         140.3215  145.5501  161.2142 H       1  UNL1        0.1578
     15 C         139.9142  144.7603  156.6804 C.ar    1  UNL1        0.1524
     16 C         139.6645  144.5454  158.1437 C.ar    1  UNL1        0.0721
     17 C         140.6818  144.9918  159.1516 C.ar    1  UNL1        0.1384
     18 N         141.9487  145.6532  158.6961 N.ar    1  UNL1       -0.2281
     19 C         142.1984  145.8681  157.2327 C.ar    1  UNL1        0.1136
     20 C         141.1811  145.4217  156.2249 C.ar    1  UNL1        0.1215
     21 C         141.4307  145.6366  154.7615 C.1     1  UNL1        0.1051
     22 N         141.6804  145.8516  153.2981 N.1     1  UNL1       -0.1907
     23 O         138.8969  144.3139  155.6725 O.3     1  UNL1       -0.4746
     24 C         138.7780  142.8608  155.3199 C.3     1  UNL1        0.2065
     25 C         137.7716  141.9984  156.0224 C.3     1  UNL1        0.0551
     26 C         138.8598  141.0390  156.4036 C.3     1  UNL1        0.0051
     27 C         136.6834  142.9578  155.6412 C.3     1  UNL1        0.0051
     28 C         136.7652  141.1361  156.7249 C.3     1  UNL1        0.0757
     29 C         134.3280  140.3214  156.3425 C.3     1  UNL1        0.0897
     30 N         135.7698  140.3450  155.9292 N.3     1  UNL1       -0.2702
     31 C         136.2160  139.5776  154.7201 C.3     1  UNL1        0.0897
     32 C         139.7768  137.5968  164.8301 C.3     1  UNL1        0.3425
     33 F         140.9910  136.7161  164.8241 F       1  UNL1       -0.1932
     34 F         138.4814  137.0844  165.3864 F       1  UNL1       -0.1932
     35 C         140.2761  138.0266  161.9033 C.2     1  UNL1        0.2530
     36 O         141.6115  137.3534  161.7862 O.2     1  UNL1       -0.2815
@<TRIPOS>BOND
     1    29    30    1
     2    30    31    1
     3    30    28    1
     4    28    25    1
     5    25    26    1
     6    25    27    1
     7    25    24    1
     8    24    23    1
     9    23    15    1
    10    15    16   ar
    11    16    17   ar
    12    17     1    1
    13     1     2   am
    14     2     3    2
    15     2     4   am
    16     4     5    1
    17     5     6    1
    18     6     7    1
    19     7     8    1
    20     8     9   ar
    21     9    10   ar
    22    10    32    1
    23    32    33    1
    24    32    34    1
    25    10    11   ar
    26    11    35    1
    27    35    36    2
    28    11    12   ar
    29    12    13   ar
    30    17    18   ar
    31    18    19   ar
    32    19    20   ar
    33    20    21    1
    34    21    22    3
    35    20    15   ar
    36    13     4    1
    37    13     8   ar
    38     1    14    1
@<TRIPOS>MOLECULE
*****
 36 38 0 0 0
SMALL
GASTEIGER

@<TRIPOS>ATOM
      1 N         139.6751  139.2359  162.1398 N.am    1  UNL1       -0.2531
      2 C         140.3763  139.9215  163.2748 C.2     1  UNL1        0.3135
      3 O         141.6008  140.7466  163.0111 O.2     1  UNL1       -0.2518
      4 N         139.8528  139.7821  164.6736 N.am    1  UNL1       -0.2282
      5 C         138.6282  138.9570  164.9374 C.3     1  UNL1        0.1015
      6 C         138.1047  138.8176  166.3361 C.3     1  UNL1        0.0268
      7 C         138.8059  139.5032  167.4711 C.3     1  UNL1        0.0310
      8 C         140.0304  140.3283  167.2074 C.ar    1  UNL1        0.0098
      9 C         140.7316  141.0140  168.3424 C.ar    1  UNL1        0.0013
     10 C         141.9561  141.8391  168.0787 C.ar    1  UNL1        0.0643
     11 CA        142.4797  141.9785  166.6799 C.ar    1  UNL1        0.1260
     12 N         141.7785  141.2929  165.5449 N.ar    1  UNL1       -0.2274
     13 C         140.5539  140.4677  165.8087 C.ar    1  UNL1        0.1345
     14 H         138.8714  138.6943  162.3129 H       1  UNL1        0.1578
     15 C         140.4732  140.7767  158.5707 C.ar    1  UNL1        0.1524
     16 C         139.9498  140.6373  159.9694 C.ar    1  UNL1        0.0721
     17 C         140.1986  139.3753  160.7411 C.ar    1  UNL1        0.1384
     18 N         140.9709  138.2527  160.1139 N.ar    1  UNL1       -0.2281
     19 C         141.4943  138.3921  158.7151 C.ar    1  UNL1        0.1136
     20 C         141.2455  139.6541  157.9435 C.ar    1  UNL1        0.1215
     21 C         141.7689  139.7936  156.5448 C.1     1  UNL1        0.1051
     22 N         142.2924  139.9330  155.1460 N.1     1  UNL1       -0.1907
     23 O         140.2244  142.0388  157.7991 O.3     1  UNL1       -0.4746
     24 C         141.2556  143.1281  157.7902 C.3     1  UNL1        0.2065
     25 C         141.2971  144.1307  158.9052 C.3     1  UNL1        0.0551
     26 C         139.9916  144.7034  158.4388 C.3     1  UNL1        0.0051
     27 C         142.6026  143.5580  159.3716 C.3     1  UNL1        0.0051
     28 C         141.3386  145.1333  160.0201 C.3     1  UNL1        0.0757
     29 C         139.6889  146.2771  161.6694 C.3     1  UNL1        0.0897
     30 N         140.3575  145.0385  161.1508 N.3     1  UNL1       -0.2702
     31 C         140.0450  143.7052  161.7628 C.3     1  UNL1        0.0897
     32 C         142.6573  142.5248  169.2137 C.3     1  UNL1        0.3425
     33 F         144.0468  142.1100  169.5971 F       1  UNL1       -0.1932
     34 F         141.9688  143.6253  169.9654 F       1  UNL1       -0.1932
     35 C         143.7042  142.8036  166.4162 C.2     1  UNL1        0.2530
     36 O         144.4222  142.6823  165.1047 O.2     1  UNL1       -0.2815
@<TRIPOS>BOND
     1    29    30    1
     2    30    31    1
     3    30    28    1
     4    28    25    1
     5    25    26    1
     6    25    27    1
     7    25    24    1
     8    24    23    1
     9    23    15    1
    10    15    16   ar
    11    16    17   ar
    12    17     1    1
    13     1     2   am
    14     2     3    2
    15     2     4   am
    16     4     5    1
    17     5     6    1
    18     6     7    1
    19     7     8    1
    20     8     9   ar
    21     9    10   ar
    22    10    32    1
    23    32    33    1
    24    32    34    1
    25    10    11   ar
    26    11    35    1
    27    35    36    2
    28    11    12   ar
    29    12    13   ar
    30    17    18   ar
    31    18    19   ar
    32    19    20   ar
    33    20    21    1
    34    21    22    3
    35    20    15   ar
    36    13     4    1
    37    13     8   ar
    38     1    14    1
@<TRIPOS>MOLECULE
*****
 36 38 0 0 0
SMALL
GASTEIGER

@<TRIPOS>ATOM
      1 N         138.4152  139.2327  163.2174 N.am    1  UNL1       -0.2531
      2 C         139.3440  139.9186  164.1750 C.2     1  UNL1        0.3135
      3 O         140.4976  140.7236  163.6544 O.2     1  UNL1       -0.2518
      4 N         139.1190  139.7994  165.6533 N.am    1  UNL1       -0.2282
      5 C         137.9654  138.9944  166.1739 C.3     1  UNL1        0.1015
      6 C         137.7405  138.8752  167.6521 C.3     1  UNL1        0.0268
      7 C         138.6693  139.5611  168.6097 C.3     1  UNL1        0.0310
      8 C         139.8229  140.3661  168.0891 C.ar    1  UNL1        0.0098
      9 C         140.7517  141.0519  169.0468 C.ar    1  UNL1        0.0013
     10 C         141.9053  141.8569  168.5262 C.ar    1  UNL1        0.0643
     11 CA        142.1303  141.9761  167.0479 C.ar    1  UNL1        0.1260
     12 N         141.2015  141.2902  166.0902 N.ar    1  UNL1       -0.2274
     13 C         140.0478  140.4852  166.6109 C.ar    1  UNL1        0.1345
     14 H         137.6580  138.7044  163.5591 H       1  UNL1        0.1578
     15 C         140.0518  138.8080  159.6270 C.ar    1  UNL1        0.1524
     16 C         139.8269  138.6888  161.1052 C.ar    1  UNL1        0.0721
     17 C         138.6401  139.3519  161.7392 C.ar    1  UNL1        0.1384
     18 N         137.6782  140.1341  160.8948 N.ar    1  UNL1       -0.2281
     19 C         137.9031  140.2532  159.4165 C.ar    1  UNL1        0.1136
     20 C         139.0899  139.5902  158.7826 C.ar    1  UNL1        0.1215
     21 C         139.3148  139.7093  157.3044 C.1     1  UNL1        0.1051
     22 N         139.5397  139.8285  155.8261 N.1     1  UNL1       -0.1907
     23 O         141.2386  138.1450  158.9931 O.3     1  UNL1       -0.4746
     24 C         142.5147  137.9928  159.7667 C.3     1  UNL1        0.2065
     25 C         143.4306  139.1679  159.9414 C.3     1  UNL1        0.0551
     26 C         143.1447  139.5999  158.5337 C.3     1  UNL1        0.0051
     27 C         143.7164  138.7358  161.3490 C.3     1  UNL1        0.0051
     28 C         144.3463  140.3429  160.1160 C.3     1  UNL1        0.0757
     29 C         142.5804  142.0246  161.0123 C.3     1  UNL1        0.0897
     30 N         143.9683  141.4565  161.0471 N.3     1  UNL1       -0.2702
     31 C         144.9780  142.0020  162.0130 C.3     1  UNL1        0.0897
     32 C         142.8341  142.5427  169.4838 C.3     1  UNL1        0.3425
     33 F         144.2244  142.0174  169.6864 F       1  UNL1       -0.1932
     34 F         142.3724  143.7539  170.2389 F       1  UNL1       -0.1932
     35 C         143.2839  142.7810  166.5273 C.2     1  UNL1        0.2530
     36 O         143.4651  142.9632  165.0494 O.2     1  UNL1       -0.2815
@<TRIPOS>BOND
     1    29    30    1
     2    30    31    1
     3    30    28    1
     4    28    25    1
     5    25    26    1
     6    25    27    1
     7    25    24    1
     8    24    23    1
     9    23    15    1
    10    15    16   ar
    11    16    17   ar
    12    17     1    1
    13     1     2   am
    14     2     3    2
    15     2     4   am
    16     4     5    1
    17     5     6    1
    18     6     7    1
    19     7     8    1
    20     8     9   ar
    21     9    10   ar
    22    10    32    1
    23    32    33    1
    24    32    34    1
    25    10    11   ar
    26    11    35    1
    27    35    36    2
    28    11    12   ar
    29    12    13   ar
    30    17    18   ar
    31    18    19   ar
    32    19    20   ar
    33    20    21    1
    34    21    22    3
    35    20    15   ar
    36    13     4    1
    37    13     8   ar
    38     1    14    1
