@<TRIPOS>MOLECULE
*****
 36 41 0 0 0
SMALL
GASTEIGER

@<TRIPOS>ATOM
      1 C         139.1587  142.3971  157.8139 C.3     1  UNL1        0.0948
      2 N         139.4410  141.1553  157.0214 N.3     1  UNL1       -0.2887
      3 C         139.3697  139.8110  157.6830 C.3     1  UNL1        0.1161
      4 C         139.0160  139.7085  159.1371 C.3     1  UNL1        0.0510
      5 C         138.7337  140.9503  159.9296 C.2     1  UNL1       -0.0044
      6 C         138.8050  142.2946  159.2681 C.2     1  UNL1        0.0689
      7 N         138.4779  143.3356  160.2973 N.2     1  UNL1       -0.2526
      8 C         138.2043  142.6347  161.5949 C.2     1  UNL1        0.0627
      9 C         137.8317  143.1484  162.9540 C.3     1  UNL1        0.0717
     10 C         137.6172  142.1878  164.0859 C.2     1  UNL1       -0.0198
     11 C         137.7753  140.7136  163.8587 C.2     1  UNL1       -0.0042
     12 C         138.1479  140.1999  162.4996 C.2     1  UNL1        0.0006
     13 C         138.3624  141.1604  161.3677 C.2     1  UNL1        0.0111
     14 H         140.3864  141.2512  156.6506 H       1  UNL1        0.1239
     15 N         139.3728  146.4301  155.8293 N.3     1  UNL1       -0.1594
     16 C         138.4573  145.3740  155.2849 C.3     1  UNL1        0.0955
     17 C         138.3859  144.0296  155.9465 C.3     1  UNL1        0.0209
     18 C         139.2300  143.7414  157.1524 C.3     1  UNL1        0.0230
     19 C         140.1456  144.7976  157.6967 C.3     1  UNL1        0.0209
     20 C         140.2170  146.1419  157.0352 C.3     1  UNL1        0.0955
     21 C         139.5155  149.1188  154.5061 C.3     1  UNL1        0.1960
     22 S         139.4442  147.7745  155.1677 S.O2    1  UNL1        0.0457
     23 O         138.7218  148.3856  156.3316 O.2     1  UNL1       -0.1572
     24 O         140.1665  147.1633  154.0038 O.2     1  UNL1       -0.1572
     25 C         139.6520  138.5691  156.8904 C.ar    1  UNL1        0.1318
     26 N         140.8324  137.6604  157.0662 N.ar    1  UNL1       -0.2298
     27 C         140.7134  136.5476  156.0675 C.ar    1  UNL1        0.0996
     28 C         139.4596  136.7686  155.2744 C.ar    1  UNL1        0.0927
     29 N         138.8036  138.0179  155.7830 N.ar    1  UNL1       -0.3386
     30 H         137.9636  138.4078  155.4487 H       1  UNL1        0.1672
     31 C         141.6789  135.4129  155.8925 C.ar    1  UNL1        0.0192
     32 C         141.4208  134.3620  154.8538 C.ar    1  UNL1        0.0015
     33 C         142.3862  133.2274  154.6788 C.ar    1  UNL1        0.0000
     34 C         143.6097  133.1438  155.5425 C.ar    1  UNL1        0.0000
     35 C         143.8678  134.1948  156.5811 C.ar    1  UNL1        0.0000
     36 C         142.9024  135.3293  156.7561 C.ar    1  UNL1        0.0015
@<TRIPOS>BOND
     1    21    22    1
     2    22    23    2
     3    22    24    2
     4    22    15    1
     5    15    16    1
     6    16    17    1
     7    17    18    1
     8    18     1    1
     9     1     2    1
    10     2     3    1
    11     3    25    1
    12    25    26   ar
    13    26    27   ar
    14    27    31    1
    15    31    32   ar
    16    32    33   ar
    17    33    34   ar
    18    34    35   ar
    19    35    36   ar
    20    27    28   ar
    21    28    29   ar
    22     3     4    1
    23     4     5    1
    24     5     6    2
    25     6     7    1
    26     7     8    2
    27     8     9    1
    28     9    10    1
    29    10    11    2
    30    11    12    1
    31    12    13    2
    32    18    19    1
    33    19    20    1
    34    20    15    1
    35     6     1    1
    36    13     8    1
    37    29    25   ar
    38    13     5    1
    39    36    31   ar
    40     2    14    1
    41    29    30    1
@<TRIPOS>MOLECULE
*****
 36 41 0 0 0
SMALL
GASTEIGER

@<TRIPOS>ATOM
      1 C         142.4332  142.3337  158.2068 C.3     1  UNL1        0.0948
      2 N         142.5997  141.0810  157.3987 N.3     1  UNL1       -0.2887
      3 C         143.3156  139.9002  157.9845 C.3     1  UNL1        0.1161
      4 C         143.8650  139.9720  159.3784 C.3     1  UNL1        0.0510
      5 C         143.6985  141.2247  160.1865 C.2     1  UNL1       -0.0044
      6 C         142.9826  142.4055  159.6008 C.2     1  UNL1        0.0689
      7 N         142.9717  143.4976  160.6289 N.2     1  UNL1       -0.2526
      8 C         143.6808  142.9918  161.8501 C.2     1  UNL1        0.0627
      9 C         143.9755  143.6289  163.1757 C.3     1  UNL1        0.0717
     10 C         144.7194  142.8611  164.2279 C.2     1  UNL1       -0.0198
     11 C         145.1686  141.4563  163.9545 C.2     1  UNL1       -0.0042
     12 C         144.8739  140.8193  162.6289 C.2     1  UNL1        0.0006
     13 C         144.1300  141.5870  161.5767 C.2     1  UNL1        0.0111
     14 H         143.1055  141.3418  156.5522 H       1  UNL1        0.1239
     15 N         140.2855  145.8761  156.4494 N.3     1  UNL1       -0.1594
     16 C         141.7375  145.9828  156.8105 C.3     1  UNL1        0.0955
     17 C         142.4534  144.8019  157.3963 C.3     1  UNL1        0.0209
     18 C         141.7174  143.5145  157.6210 C.3     1  UNL1        0.0230
     19 C         140.2653  143.4078  157.2600 C.3     1  UNL1        0.0209
     20 C         139.5494  144.5886  156.6742 C.3     1  UNL1        0.0955
     21 C         138.8537  148.2377  155.2779 C.3     1  UNL1        0.1960
     22 S         139.5696  147.0569  155.8636 S.O2    1  UNL1        0.0457
     23 O         139.1167  147.4626  157.2349 O.2     1  UNL1       -0.1572
     24 O         140.0226  146.6513  154.4924 O.2     1  UNL1       -0.1572
     25 C         143.4821  138.6474  157.1763 C.ar    1  UNL1        0.1318
     26 N         142.9347  137.2949  157.5238 N.ar    1  UNL1       -0.2298
     27 C         143.3395  136.3389  156.4411 C.ar    1  UNL1        0.0996
     28 C         144.1370  137.1007  155.4245 C.ar    1  UNL1        0.0927
     29 N         144.2252  138.5275  155.8789 N.ar    1  UNL1       -0.3386
     30 H         144.6893  139.2571  155.4082 H       1  UNL1        0.1672
     31 C         143.0053  134.8776  156.3849 C.ar    1  UNL1        0.0192
     32 C         143.7878  133.8972  157.2075 C.ar    1  UNL1        0.0015
     33 C         143.4537  132.4360  157.1514 C.ar    1  UNL1        0.0000
     34 C         142.3372  131.9552  156.2726 C.ar    1  UNL1        0.0000
     35 C         141.5548  132.9356  155.4501 C.ar    1  UNL1        0.0000
     36 C         141.8888  134.3968  155.5062 C.ar    1  UNL1        0.0015
@<TRIPOS>BOND
     1    21    22    1
     2    22    23    2
     3    22    24    2
     4    22    15    1
     5    15    16    1
     6    16    17    1
     7    17    18    1
     8    18     1    1
     9     1     2    1
    10     2     3    1
    11     3    25    1
    12    25    26   ar
    13    26    27   ar
    14    27    31    1
    15    31    32   ar
    16    32    33   ar
    17    33    34   ar
    18    34    35   ar
    19    35    36   ar
    20    27    28   ar
    21    28    29   ar
    22     3     4    1
    23     4     5    1
    24     5     6    2
    25     6     7    1
    26     7     8    2
    27     8     9    1
    28     9    10    1
    29    10    11    2
    30    11    12    1
    31    12    13    2
    32    18    19    1
    33    19    20    1
    34    20    15    1
    35     6     1    1
    36    13     8    1
    37    29    25   ar
    38    13     5    1
    39    36    31   ar
    40     2    14    1
    41    29    30    1
@<TRIPOS>MOLECULE
*****
 36 41 0 0 0
SMALL
GASTEIGER

@<TRIPOS>ATOM
      1 C         141.1703  139.6809  160.0675 C.3     1  UNL1        0.0948
      2 N         141.7576  138.5360  159.2966 N.3     1  UNL1       -0.2887
      3 C         142.4205  138.7840  157.9741 C.3     1  UNL1        0.1161
      4 C         142.4963  140.1768  157.4225 C.3     1  UNL1        0.0510
      5 C         141.9090  141.3217  158.1934 C.2     1  UNL1       -0.0044
      6 C         141.2461  141.0737  159.5159 C.2     1  UNL1        0.0689
      7 N         140.7603  142.3906  160.0450 N.2     1  UNL1       -0.2526
      8 C         141.1231  143.4524  159.0495 C.2     1  UNL1        0.0627
      9 C         140.8987  144.9355  159.0372 C.3     1  UNL1        0.0717
     10 C         141.3842  145.7579  157.8806 C.2     1  UNL1       -0.0198
     11 C         142.0941  145.0972  156.7362 C.2     1  UNL1       -0.0042
     12 C         142.3186  143.6142  156.7485 C.2     1  UNL1        0.0006
     13 C         141.8330  142.7918  157.9051 C.2     1  UNL1        0.0111
     14 H         140.9990  137.8757  159.1265 H       1  UNL1        0.1239
     15 N         139.1815  138.9371  164.0350 N.3     1  UNL1       -0.1594
     16 C         138.6663  138.2607  162.7993 C.3     1  UNL1        0.0955
     17 C         139.3292  138.5087  161.4767 C.3     1  UNL1        0.0209
     18 C         140.5074  139.4329  161.3900 C.3     1  UNL1        0.0230
     19 C         141.0226  140.1093  162.6258 C.3     1  UNL1        0.0209
     20 C         140.3597  139.8614  163.9483 C.3     1  UNL1        0.0955
     21 C         137.8556  138.4411  166.6800 C.3     1  UNL1        0.1960
     22 S         138.5185  138.6891  165.3575 S.O2    1  UNL1        0.0457
     23 O         138.8806  137.2363  165.2666 O.2     1  UNL1       -0.1572
     24 O         138.1565  140.1419  165.4484 O.2     1  UNL1       -0.1572
     25 C         143.0078  137.6390  157.2031 C.ar    1  UNL1        0.1318
     26 N         142.8872  136.1857  157.5542 N.ar    1  UNL1       -0.2298
     27 C         143.6236  135.3949  156.5138 C.ar    1  UNL1        0.0996
     28 C         144.1994  136.3595  155.5198 C.ar    1  UNL1        0.0927
     29 N         143.8188  137.7465  155.9458 N.ar    1  UNL1       -0.3386
     30 H         144.0590  138.5808  155.4817 H       1  UNL1        0.1672
     31 C         143.7603  133.9016  156.4744 C.ar    1  UNL1        0.0192
     32 C         144.3937  133.1759  157.6243 C.ar    1  UNL1        0.0015
     33 C         144.5304  131.6827  157.5849 C.ar    1  UNL1        0.0000
     34 C         144.0337  130.9152  156.3957 C.ar    1  UNL1        0.0000
     35 C         143.4003  131.6409  155.2459 C.ar    1  UNL1        0.0000
     36 C         143.2636  133.1341  155.2853 C.ar    1  UNL1        0.0015
@<TRIPOS>BOND
     1    21    22    1
     2    22    23    2
     3    22    24    2
     4    22    15    1
     5    15    16    1
     6    16    17    1
     7    17    18    1
     8    18     1    1
     9     1     2    1
    10     2     3    1
    11     3    25    1
    12    25    26   ar
    13    26    27   ar
    14    27    31    1
    15    31    32   ar
    16    32    33   ar
    17    33    34   ar
    18    34    35   ar
    19    35    36   ar
    20    27    28   ar
    21    28    29   ar
    22     3     4    1
    23     4     5    1
    24     5     6    2
    25     6     7    1
    26     7     8    2
    27     8     9    1
    28     9    10    1
    29    10    11    2
    30    11    12    1
    31    12    13    2
    32    18    19    1
    33    19    20    1
    34    20    15    1
    35     6     1    1
    36    13     8    1
    37    29    25   ar
    38    13     5    1
    39    36    31   ar
    40     2    14    1
    41    29    30    1
@<TRIPOS>MOLECULE
*****
 36 41 0 0 0
SMALL
GASTEIGER

@<TRIPOS>ATOM
      1 C         141.9406  141.9039  158.1813 C.3     1  UNL1        0.0948
      2 N         141.1773  142.8361  157.2878 N.3     1  UNL1       -0.2887
      3 C         140.7837  144.1959  157.7838 C.3     1  UNL1        0.1161
      4 C         141.1532  144.6234  159.1733 C.3     1  UNL1        0.0510
      5 C         141.9164  143.6912  160.0668 C.2     1  UNL1       -0.0044
      6 C         142.3101  142.3314  159.5708 C.2     1  UNL1        0.0689
      7 N         143.0538  141.6341  160.6711 N.2     1  UNL1       -0.2526
      8 C         143.1197  142.5628  161.8471 C.2     1  UNL1        0.0627
      9 C         143.7290  142.4151  163.2098 C.3     1  UNL1        0.0717
     10 C         143.6353  143.5388  164.1990 C.2     1  UNL1       -0.0198
     11 C         142.9324  144.8102  163.8255 C.2     1  UNL1       -0.0042
     12 C         142.3231  144.9579  162.4628 C.2     1  UNL1        0.0006
     13 C         142.4168  143.8342  161.4736 C.2     1  UNL1        0.0111
     14 H         140.3153  142.3562  157.0290 H       1  UNL1        0.1239
     15 N         143.1215  137.8245  156.6933 N.3     1  UNL1       -0.1594
     16 C         143.6988  139.0523  156.0536 C.3     1  UNL1        0.0955
     17 C         143.3052  140.4122  156.5496 C.3     1  UNL1        0.0209
     18 C         142.3342  140.5441  157.6852 C.3     1  UNL1        0.0230
     19 C         141.7569  139.3162  158.3249 C.3     1  UNL1        0.0209
     20 C         142.1505  137.9565  157.8289 C.3     1  UNL1        0.0955
     21 C         143.9088  135.1050  155.7012 C.3     1  UNL1        0.1960
     22 S         143.5152  136.4647  156.1972 S.O2    1  UNL1        0.0457
     23 O         142.2520  135.8910  156.7676 O.2     1  UNL1       -0.1572
     24 O         144.7783  137.0385  155.6269 O.2     1  UNL1       -0.1572
     25 C         140.0204  145.1283  156.8903 C.ar    1  UNL1        0.1318
     26 N         140.2878  146.5932  156.7105 N.ar    1  UNL1       -0.2298
     27 C         139.2884  147.1297  155.7288 C.ar    1  UNL1        0.0996
     28 C         138.4035  145.9962  155.3020 C.ar    1  UNL1        0.0927
     29 N         138.8559  144.7593  156.0199 N.ar    1  UNL1       -0.3386
     30 H         138.4582  143.8627  155.9347 H       1  UNL1        0.1672
     31 C         139.1912  148.5502  155.2569 C.ar    1  UNL1        0.0192
     32 C         139.7550  148.9372  153.9219 C.ar    1  UNL1        0.0015
     33 C         139.6578  150.3577  153.4499 C.ar    1  UNL1        0.0000
     34 C         138.9967  151.3911  154.3130 C.ar    1  UNL1        0.0000
     35 C         138.4328  151.0041  155.6480 C.ar    1  UNL1        0.0000
     36 C         138.5300  149.5836  156.1199 C.ar    1  UNL1        0.0015
@<TRIPOS>BOND
     1    21    22    1
     2    22    23    2
     3    22    24    2
     4    22    15    1
     5    15    16    1
     6    16    17    1
     7    17    18    1
     8    18     1    1
     9     1     2    1
    10     2     3    1
    11     3    25    1
    12    25    26   ar
    13    26    27   ar
    14    27    31    1
    15    31    32   ar
    16    32    33   ar
    17    33    34   ar
    18    34    35   ar
    19    35    36   ar
    20    27    28   ar
    21    28    29   ar
    22     3     4    1
    23     4     5    1
    24     5     6    2
    25     6     7    1
    26     7     8    2
    27     8     9    1
    28     9    10    1
    29    10    11    2
    30    11    12    1
    31    12    13    2
    32    18    19    1
    33    19    20    1
    34    20    15    1
    35     6     1    1
    36    13     8    1
    37    29    25   ar
    38    13     5    1
    39    36    31   ar
    40     2    14    1
    41    29    30    1
@<TRIPOS>MOLECULE
*****
 36 41 0 0 0
SMALL
GASTEIGER

@<TRIPOS>ATOM
      1 C         142.6810  137.0306  156.8691 C.3     1  UNL1        0.0948
      2 N         141.6304  137.2638  157.9140 N.3     1  UNL1       -0.2887
      3 C         141.3152  138.6602  158.3620 C.3     1  UNL1        0.1161
      4 C         142.0505  139.8234  157.7651 C.3     1  UNL1        0.0510
      5 C         143.1012  139.5901  156.7202 C.2     1  UNL1       -0.0044
      6 C         143.4164  138.1938  156.2722 C.2     1  UNL1        0.0689
      7 N         144.4945  138.2729  155.2323 N.2     1  UNL1       -0.2526
      8 C         144.8455  139.7182  155.0375 C.2     1  UNL1        0.0627
      9 C         145.8381  140.3981  154.1417 C.3     1  UNL1        0.0717
     10 C         145.9694  141.8921  154.1654 C.2     1  UNL1       -0.0198
     11 C         145.1083  142.7062  155.0850 C.2     1  UNL1       -0.0042
     12 C         144.1158  142.0263  155.9809 C.2     1  UNL1        0.0006
     13 C         143.9844  140.5323  155.9571 C.2     1  UNL1        0.0111
     14 H         141.9207  136.7468  158.7439 H       1  UNL1        0.1239
     15 N         143.6267  132.8414  155.5250 N.3     1  UNL1       -0.1594
     16 C         143.9813  133.2813  156.9145 C.3     1  UNL1        0.0955
     17 C         143.6661  134.6778  157.3626 C.3     1  UNL1        0.0209
     18 C         142.9962  135.6342  156.4211 C.3     1  UNL1        0.0230
     19 C         142.6416  135.1942  155.0316 C.3     1  UNL1        0.0209
     20 C         142.9568  133.7979  154.5835 C.3     1  UNL1        0.0955
     21 C         144.2571  130.0486  154.6291 C.3     1  UNL1        0.1960
     22 S         143.9419  131.4450  155.0771 S.O2    1  UNL1        0.0457
     23 O         142.6950  131.4310  154.2434 O.2     1  UNL1       -0.1572
     24 O         145.1888  131.4590  155.9107 O.2     1  UNL1       -0.1572
     25 C         140.2645  138.8935  159.4069 C.ar    1  UNL1        0.1318
     26 N         140.4297  138.6906  160.8839 N.ar    1  UNL1       -0.2298
     27 C         139.1316  139.0423  161.5481 C.ar    1  UNL1        0.0996
     28 C         138.1641  139.4625  160.4816 C.ar    1  UNL1        0.0927
     29 N         138.8643  139.3706  159.1582 N.ar    1  UNL1       -0.3386
     30 H         138.4735  139.5856  158.2806 H       1  UNL1        0.1672
     31 C         138.8503  138.9839  163.0204 C.ar    1  UNL1        0.0192
     32 C         138.3802  140.2113  163.7433 C.ar    1  UNL1        0.0015
     33 C         138.0990  140.1530  165.2155 C.ar    1  UNL1        0.0000
     34 C         138.2877  138.8674  165.9648 C.ar    1  UNL1        0.0000
     35 C         138.7578  137.6400  165.2418 C.ar    1  UNL1        0.0000
     36 C         139.0391  137.6983  163.7696 C.ar    1  UNL1        0.0015
@<TRIPOS>BOND
     1    21    22    1
     2    22    23    2
     3    22    24    2
     4    22    15    1
     5    15    16    1
     6    16    17    1
     7    17    18    1
     8    18     1    1
     9     1     2    1
    10     2     3    1
    11     3    25    1
    12    25    26   ar
    13    26    27   ar
    14    27    31    1
    15    31    32   ar
    16    32    33   ar
    17    33    34   ar
    18    34    35   ar
    19    35    36   ar
    20    27    28   ar
    21    28    29   ar
    22     3     4    1
    23     4     5    1
    24     5     6    2
    25     6     7    1
    26     7     8    2
    27     8     9    1
    28     9    10    1
    29    10    11    2
    30    11    12    1
    31    12    13    2
    32    18    19    1
    33    19    20    1
    34    20    15    1
    35     6     1    1
    36    13     8    1
    37    29    25   ar
    38    13     5    1
    39    36    31   ar
    40     2    14    1
    41    29    30    1
@<TRIPOS>MOLECULE
*****
 36 41 0 0 0
SMALL
GASTEIGER

@<TRIPOS>ATOM
      1 C         142.4299  138.0627  157.6496 C.3     1  UNL1        0.0948
      2 N         141.6218  138.3943  158.8691 N.3     1  UNL1       -0.2887
      3 C         141.8790  139.6699  159.6152 C.3     1  UNL1        0.1161
      4 C         142.9443  140.6139  159.1418 C.3     1  UNL1        0.0510
      5 C         143.7524  140.2824  157.9224 C.2     1  UNL1       -0.0044
      6 C         143.4952  139.0068  157.1763 C.2     1  UNL1        0.0689
      7 N         144.4444  138.9489  156.0163 N.2     1  UNL1       -0.2526
      8 C         145.2882  140.1887  156.0454 C.2     1  UNL1        0.0627
      9 C         146.3907  140.6737  155.1515 C.3     1  UNL1        0.0717
     10 C         147.0655  141.9828  155.4356 C.2     1  UNL1       -0.0198
     11 C         146.6378  142.8069  156.6137 C.2     1  UNL1       -0.0042
     12 C         145.5353  142.3220  157.5076 C.2     1  UNL1        0.0006
     13 C         144.8605  141.0129  157.2235 C.2     1  UNL1        0.0111
     14 H         141.7627  137.6320  159.5319 H       1  UNL1        0.1239
     15 N         141.6584  134.2358  155.4114 N.3     1  UNL1       -0.1594
     16 C         140.8124  135.4451  155.1433 C.3     1  UNL1        0.0955
     17 C         141.0696  136.7208  155.8894 C.3     1  UNL1        0.0209
     18 C         142.1727  136.7871  156.9035 C.3     1  UNL1        0.0230
     19 C         143.0187  135.5778  157.1716 C.3     1  UNL1        0.0209
     20 C         142.7616  134.3022  156.4256 C.3     1  UNL1        0.0955
     21 C         141.1440  131.6846  153.9192 C.3     1  UNL1        0.1960
     22 S         141.4012  132.9602  154.6653 S.O2    1  UNL1        0.0457
     23 O         141.1657  133.7433  153.4078 O.2     1  UNL1       -0.1572
     24 O         141.6367  132.1772  155.9228 O.2     1  UNL1       -0.1572
     25 C         141.0709  140.0015  160.8347 C.ar    1  UNL1        0.1318
     26 N         140.8017  141.3780  161.3664 N.ar    1  UNL1       -0.2298
     27 C         139.9546  141.2421  162.5968 C.ar    1  UNL1        0.0996
     28 C         139.7003  139.7817  162.8255 C.ar    1  UNL1        0.0927
     29 N         140.3902  139.0149  161.7364 N.ar    1  UNL1       -0.3386
     30 H         140.3953  138.0360  161.6318 H       1  UNL1        0.1672
     31 C         139.4503  142.3690  163.4490 C.ar    1  UNL1        0.0192
     32 C         140.1583  142.7200  164.7239 C.ar    1  UNL1        0.0015
     33 C         139.6541  143.8467  165.5761 C.ar    1  UNL1        0.0000
     34 C         138.4419  144.6225  165.1532 C.ar    1  UNL1        0.0000
     35 C         137.7339  144.2714  163.8783 C.ar    1  UNL1        0.0000
     36 C         138.2381  143.1447  163.0261 C.ar    1  UNL1        0.0015
@<TRIPOS>BOND
     1    21    22    1
     2    22    23    2
     3    22    24    2
     4    22    15    1
     5    15    16    1
     6    16    17    1
     7    17    18    1
     8    18     1    1
     9     1     2    1
    10     2     3    1
    11     3    25    1
    12    25    26   ar
    13    26    27   ar
    14    27    31    1
    15    31    32   ar
    16    32    33   ar
    17    33    34   ar
    18    34    35   ar
    19    35    36   ar
    20    27    28   ar
    21    28    29   ar
    22     3     4    1
    23     4     5    1
    24     5     6    2
    25     6     7    1
    26     7     8    2
    27     8     9    1
    28     9    10    1
    29    10    11    2
    30    11    12    1
    31    12    13    2
    32    18    19    1
    33    19    20    1
    34    20    15    1
    35     6     1    1
    36    13     8    1
    37    29    25   ar
    38    13     5    1
    39    36    31   ar
    40     2    14    1
    41    29    30    1
@<TRIPOS>MOLECULE
*****
 36 41 0 0 0
SMALL
GASTEIGER

@<TRIPOS>ATOM
      1 C         141.5291  142.3530  158.1524 C.3     1  UNL1        0.0948
      2 N         141.6617  142.6987  159.6060 N.3     1  UNL1       -0.2887
      3 C         143.0203  142.9102  160.2056 C.3     1  UNL1        0.1161
      4 C         144.2462  142.7760  159.3517 C.3     1  UNL1        0.0510
      5 C         144.1135  142.4303  157.8982 C.2     1  UNL1       -0.0044
      6 C         142.7550  142.2188  157.2985 C.2     1  UNL1        0.0689
      7 N         142.9355  141.8899  155.8462 N.2     1  UNL1       -0.2526
      8 C         144.4056  141.8981  155.5483 C.2     1  UNL1        0.0627
      9 C         145.1753  141.6446  154.2860 C.3     1  UNL1        0.0717
     10 C         146.6731  141.7251  154.2920 C.2     1  UNL1       -0.0198
     11 C         147.4012  142.0591  155.5602 C.2     1  UNL1       -0.0042
     12 C         146.6315  142.3126  156.8225 C.2     1  UNL1        0.0006
     13 C         145.1337  142.2321  156.8165 C.2     1  UNL1        0.0111
     14 H         141.2232  141.9414  160.1300 H       1  UNL1        0.1239
     15 N         137.4534  141.7184  156.3535 N.3     1  UNL1       -0.1594
     16 C         138.0150  143.1045  156.4682 C.3     1  UNL1        0.0955
     17 C         139.3736  143.3161  157.0679 C.3     1  UNL1        0.0209
     18 C         140.1705  142.1415  157.5528 C.3     1  UNL1        0.0230
     19 C         139.6088  140.7553  157.4380 C.3     1  UNL1        0.0209
     20 C         138.2503  140.5438  156.8384 C.3     1  UNL1        0.0955
     21 C         134.7363  141.2954  155.1542 C.3     1  UNL1        0.1960
     22 S         136.0948  141.5069  155.7538 S.O2    1  UNL1        0.0457
     23 O         136.1003  142.9176  155.2440 O.2     1  UNL1       -0.1572
     24 O         136.0894  140.0963  156.2637 O.2     1  UNL1       -0.1572
     25 C         143.1529  143.2560  161.6593 C.ar    1  UNL1        0.1318
     26 N         142.4320  142.5895  162.7933 N.ar    1  UNL1       -0.2298
     27 C         142.8633  143.2505  164.0689 C.ar    1  UNL1        0.0996
     28 C         143.8508  144.3253  163.7232 C.ar    1  UNL1        0.0927
     29 N         144.0298  144.3287  162.2339 N.ar    1  UNL1       -0.3386
     30 H         144.6192  144.9296  161.7233 H       1  UNL1        0.1672
     31 C         142.3902  142.8983  165.4482 C.ar    1  UNL1        0.0192
     32 C         140.9346  143.0095  165.7929 C.ar    1  UNL1        0.0015
     33 C         140.4615  142.6573  167.1721 C.ar    1  UNL1        0.0000
     34 C         141.4440  142.1940  168.2065 C.ar    1  UNL1        0.0000
     35 C         142.8996  142.0828  167.8617 C.ar    1  UNL1        0.0000
     36 C         143.3727  142.4349  166.4826 C.ar    1  UNL1        0.0015
@<TRIPOS>BOND
     1    21    22    1
     2    22    23    2
     3    22    24    2
     4    22    15    1
     5    15    16    1
     6    16    17    1
     7    17    18    1
     8    18     1    1
     9     1     2    1
    10     2     3    1
    11     3    25    1
    12    25    26   ar
    13    26    27   ar
    14    27    31    1
    15    31    32   ar
    16    32    33   ar
    17    33    34   ar
    18    34    35   ar
    19    35    36   ar
    20    27    28   ar
    21    28    29   ar
    22     3     4    1
    23     4     5    1
    24     5     6    2
    25     6     7    1
    26     7     8    2
    27     8     9    1
    28     9    10    1
    29    10    11    2
    30    11    12    1
    31    12    13    2
    32    18    19    1
    33    19    20    1
    34    20    15    1
    35     6     1    1
    36    13     8    1
    37    29    25   ar
    38    13     5    1
    39    36    31   ar
    40     2    14    1
    41    29    30    1
@<TRIPOS>MOLECULE
*****
 36 41 0 0 0
SMALL
GASTEIGER

@<TRIPOS>ATOM
      1 C         142.0885  139.7297  160.5504 C.3     1  UNL1        0.0948
      2 N         142.1437  138.4843  159.7162 N.3     1  UNL1       -0.2887
      3 C         142.0143  138.5746  158.2245 C.3     1  UNL1        0.1161
      4 C         141.8297  139.9102  157.5671 C.3     1  UNL1        0.0510
      5 C         141.7745  141.1555  158.4013 C.2     1  UNL1       -0.0044
      6 C         141.9039  141.0653  159.8930 C.2     1  UNL1        0.0689
      7 N         141.8122  142.4546  160.4511 N.2     1  UNL1       -0.2526
      8 C         141.6262  143.4034  159.3043 C.2     1  UNL1        0.0627
      9 C         141.4750  144.8948  159.2500 C.3     1  UNL1        0.0717
     10 C         141.3005  145.5832  157.9288 C.2     1  UNL1       -0.0198
     11 C         141.2772  144.7804  156.6620 C.2     1  UNL1       -0.0042
     12 C         141.4284  143.2890  156.7163 C.2     1  UNL1        0.0006
     13 C         141.6029  142.6006  158.0375 C.2     1  UNL1        0.0111
     14 H         141.3900  137.8787  160.0410 H       1  UNL1        0.1239
     15 N         142.4766  139.4590  165.0255 N.3     1  UNL1       -0.1594
     16 C         143.6274  139.0653  164.1477 C.3     1  UNL1        0.0955
     17 C         143.4981  139.1555  162.6559 C.3     1  UNL1        0.0209
     18 C         142.2179  139.6395  162.0421 C.3     1  UNL1        0.0230
     19 C         141.0670  140.0332  162.9200 C.3     1  UNL1        0.0209
     20 C         141.1963  139.9430  164.4116 C.3     1  UNL1        0.0955
     21 C         142.7354  139.2786  168.0088 C.3     1  UNL1        0.1960
     22 S         142.6060  139.3688  166.5172 S.O2    1  UNL1        0.0457
     23 O         143.7033  138.3582  166.3608 O.2     1  UNL1       -0.1572
     24 O         141.5086  140.3794  166.6735 O.2     1  UNL1       -0.1572
     25 C         142.0694  137.3292  157.3901 C.ar    1  UNL1        0.1318
     26 N         142.9881  136.1632  157.6062 N.ar    1  UNL1       -0.2298
     27 C         142.7021  135.1446  156.5429 C.ar    1  UNL1        0.0996
     28 C         141.6067  135.6810  155.6698 C.ar    1  UNL1        0.0927
     29 N         141.2158  137.0312  156.1934 N.ar    1  UNL1       -0.3386
     30 H         140.5208  137.6186  155.8175 H       1  UNL1        0.1672
     31 C         143.3906  133.8217  156.3813 C.ar    1  UNL1        0.0192
     32 C         144.3190  133.3240  157.4492 C.ar    1  UNL1        0.0015
     33 C         145.0075  132.0012  157.2875 C.ar    1  UNL1        0.0000
     34 C         144.7676  131.1762  156.0580 C.ar    1  UNL1        0.0000
     35 C         143.8393  131.6739  154.9901 C.ar    1  UNL1        0.0000
     36 C         143.1507  132.9967  155.1518 C.ar    1  UNL1        0.0015
@<TRIPOS>BOND
     1    21    22    1
     2    22    23    2
     3    22    24    2
     4    22    15    1
     5    15    16    1
     6    16    17    1
     7    17    18    1
     8    18     1    1
     9     1     2    1
    10     2     3    1
    11     3    25    1
    12    25    26   ar
    13    26    27   ar
    14    27    31    1
    15    31    32   ar
    16    32    33   ar
    17    33    34   ar
    18    34    35   ar
    19    35    36   ar
    20    27    28   ar
    21    28    29   ar
    22     3     4    1
    23     4     5    1
    24     5     6    2
    25     6     7    1
    26     7     8    2
    27     8     9    1
    28     9    10    1
    29    10    11    2
    30    11    12    1
    31    12    13    2
    32    18    19    1
    33    19    20    1
    34    20    15    1
    35     6     1    1
    36    13     8    1
    37    29    25   ar
    38    13     5    1
    39    36    31   ar
    40     2    14    1
    41    29    30    1
@<TRIPOS>MOLECULE
*****
 36 41 0 0 0
SMALL
GASTEIGER

@<TRIPOS>ATOM
      1 C         140.7989  140.2157  158.2851 C.3     1  UNL1        0.0948
      2 N         142.0392  140.8287  157.7054 N.3     1  UNL1       -0.2887
      3 C         143.3292  140.7760  158.4690 C.3     1  UNL1        0.1161
      4 C         143.3789  140.1103  159.8123 C.3     1  UNL1        0.0510
      5 C         142.1387  139.4973  160.3920 C.2     1  UNL1       -0.0044
      6 C         140.8487  139.5500  159.6284 C.2     1  UNL1        0.0689
      7 N         139.7964  138.8642  160.4483 N.2     1  UNL1       -0.2526
      8 C         140.4361  138.3876  161.7186 C.2     1  UNL1        0.0627
      9 C         139.8874  137.6479  162.9025 C.3     1  UNL1        0.0717
     10 C         140.7863  137.2995  164.0516 C.2     1  UNL1       -0.0198
     11 C         142.2339  137.6908  164.0168 C.2     1  UNL1       -0.0042
     12 C         142.7826  138.4305  162.8329 C.2     1  UNL1        0.0006
     13 C         141.8837  138.7789  161.6838 C.2     1  UNL1        0.0111
     14 H         141.8326  141.8145  157.5440 H       1  UNL1        0.1239
     15 N         136.9288  140.3740  155.9944 N.3     1  UNL1       -0.1594
     16 C         138.0854  139.5828  155.4591 C.3     1  UNL1        0.0955
     17 C         139.3755  139.5301  156.2227 C.3     1  UNL1        0.0209
     18 C         139.5089  140.2685  157.5215 C.3     1  UNL1        0.0230
     19 C         138.3523  141.0597  158.0567 C.3     1  UNL1        0.0209
     20 C         137.0623  141.1124  157.2932 C.3     1  UNL1        0.0955
     21 C         134.3488  140.4794  154.4672 C.3     1  UNL1        0.1960
     22 S         135.6388  140.4267  155.2308 S.O2    1  UNL1        0.0457
     23 O         136.3793  140.8916  154.0119 O.2     1  UNL1       -0.1572
     24 O         134.8984  139.9618  156.4496 O.2     1  UNL1       -0.1572
     25 C         144.5695  141.3890  157.8893 C.ar    1  UNL1        0.1318
     26 N         145.2759  140.9400  156.6446 N.ar    1  UNL1       -0.2298
     27 C         146.4641  141.8321  156.4386 C.ar    1  UNL1        0.0996
     28 C         146.4919  142.8324  157.5560 C.ar    1  UNL1        0.0927
     29 N         145.3210  142.5586  158.4526 N.ar    1  UNL1       -0.3386
     30 H         145.0868  143.0587  159.2676 H       1  UNL1        0.1672
     31 C         147.4511  141.7400  155.3128 C.ar    1  UNL1        0.0192
     32 C         148.9228  141.7588  155.6022 C.ar    1  UNL1        0.0015
     33 C         149.9098  141.6667  154.4765 C.ar    1  UNL1        0.0000
     34 C         149.4251  141.5558  153.0614 C.ar    1  UNL1        0.0000
     35 C         147.9534  141.5369  152.7719 C.ar    1  UNL1        0.0000
     36 C         146.9664  141.6290  153.8976 C.ar    1  UNL1        0.0015
@<TRIPOS>BOND
     1    21    22    1
     2    22    23    2
     3    22    24    2
     4    22    15    1
     5    15    16    1
     6    16    17    1
     7    17    18    1
     8    18     1    1
     9     1     2    1
    10     2     3    1
    11     3    25    1
    12    25    26   ar
    13    26    27   ar
    14    27    31    1
    15    31    32   ar
    16    32    33   ar
    17    33    34   ar
    18    34    35   ar
    19    35    36   ar
    20    27    28   ar
    21    28    29   ar
    22     3     4    1
    23     4     5    1
    24     5     6    2
    25     6     7    1
    26     7     8    2
    27     8     9    1
    28     9    10    1
    29    10    11    2
    30    11    12    1
    31    12    13    2
    32    18    19    1
    33    19    20    1
    34    20    15    1
    35     6     1    1
    36    13     8    1
    37    29    25   ar
    38    13     5    1
    39    36    31   ar
    40     2    14    1
    41    29    30    1
