@<TRIPOS>MOLECULE
*****
 40 44 0 0 0
SMALL
GASTEIGER

@<TRIPOS>ATOM
      1 C         142.6017  139.1881  160.9458 C.3     1  UNL1        0.0747
      2 C         141.6099  140.3084  161.0522 C.3     1  UNL1        0.0369
      3 C         141.8473  141.4310  162.0183 C.3     1  UNL1        0.0741
      4 N         143.0765  141.4334  162.8781 N.3     1  UNL1       -0.2689
      5 C         144.0683  140.3131  162.7717 C.3     1  UNL1        0.0741
      6 C         143.8309  139.1904  161.8056 C.3     1  UNL1        0.0369
      7 O         143.6151  139.3931  158.1296 O.2     1  UNL1       -0.2668
      8 C         142.8711  138.1680  158.5717 C.2     1  UNL1        0.2806
      9 N         142.3644  138.0655  159.9798 N.am    1  UNL1       -0.2999
     10 H         141.8760  137.2614  160.2699 H       1  UNL1        0.1498
     11 C         142.6337  137.0453  157.6056 C.ar    1  UNL1        0.2014
     12 C         141.4974  137.1234  156.6295 C.ar    1  UNL1        0.0843
     13 C         141.2600  136.0008  155.6634 C.ar    1  UNL1        0.2018
     14 O         140.1237  136.0789  154.6874 O.2     1  UNL1       -0.2864
     15 C         142.1589  134.8000  155.6734 C.ar    1  UNL1        0.0737
     16 C         141.9215  133.6773  154.7074 C.ar    1  UNL1        0.0085
     17 C         142.8204  132.4766  154.7174 C.ar    1  UNL1        0.0299
     18 C         143.9567  132.3985  155.6934 C.ar    1  UNL1        0.1432
     19 F         144.8556  131.1976  155.7034 F       1  UNL1       -0.2041
     20 C         144.1941  133.5211  156.6595 C.ar    1  UNL1        0.0672
     21 C         143.2952  134.7218  156.6495 C.ar    1  UNL1        0.1508
     22 O         143.5326  135.8445  157.6156 O.2     1  UNL1       -0.4486
     23 C         143.3138  142.5560  163.8441 C.3     1  UNL1        0.0992
     24 C         142.6214  142.5594  165.1748 C.ar    1  UNL1       -0.0037
     25 C         141.1677  142.9185  165.2628 C.ar    1  UNL1        0.0003
     26 C         140.4752  142.9219  166.5934 C.ar    1  UNL1        0.0390
     27 C         141.2365  142.5663  167.8360 C.ar    1  UNL1        0.1658
     28 C         142.6902  142.2073  167.7479 C.ar    1  UNL1        0.1735
     29 F         143.4515  141.8517  168.9905 F       1  UNL1       -0.2010
     30 C         143.3826  142.2039  166.4173 C.ar    1  UNL1        0.0299
     31 O         140.5440  142.5698  169.1666 O.3     1  UNL1       -0.4731
     32 C         139.7995  141.3521  169.6278 C.3     1  UNL1        0.2070
     33 C         139.9501  140.0559  168.8879 C.3     1  UNL1        0.0646
     34 C         138.9698  139.6869  167.8142 C.3     1  UNL1        0.0759
     35 N         139.4613  139.1581  166.4994 N.3     1  UNL1       -0.2726
     36 C         138.5003  138.5179  165.5420 C.3     1  UNL1        0.0721
     37 C         138.9918  137.9891  164.2272 C.3     1  UNL1        0.0174
     38 C         140.4443  138.1004  163.8698 C.3     1  UNL1        0.0029
     39 C         141.4054  138.7406  164.8272 C.3     1  UNL1        0.0174
     40 C         140.9139  139.2694  166.1420 C.3     1  UNL1        0.0721
@<TRIPOS>BOND
     1     7     8    2
     2     8     9   am
     3     9     1    1
     4     1     2    1
     5     2     3    1
     6     3     4    1
     7     4    23    1
     8    23    24    1
     9    24    25   ar
    10    25    26   ar
    11    26    27   ar
    12    27    31    1
    13    31    32    1
    14    32    33    1
    15    33    34    1
    16    34    35    1
    17    35    36    1
    18    36    37    1
    19    37    38    1
    20    38    39    1
    21    39    40    1
    22    27    28   ar
    23    28    29    1
    24    28    30   ar
    25     4     5    1
    26     5     6    1
    27     8    11    1
    28    11    12   ar
    29    12    13   ar
    30    13    14    2
    31    13    15   ar
    32    15    16   ar
    33    16    17   ar
    34    17    18   ar
    35    18    19    1
    36    18    20   ar
    37    20    21   ar
    38    21    22   ar
    39     6     1    1
    40    22    11   ar
    41    30    24   ar
    42    21    15   ar
    43    40    35    1
    44     9    10    1
@<TRIPOS>MOLECULE
*****
 40 44 0 0 0
SMALL
GASTEIGER

@<TRIPOS>ATOM
      1 C         143.7397  139.9069  159.2320 C.3     1  UNL1        0.0747
      2 C         144.1062  139.6213  160.6583 C.3     1  UNL1        0.0369
      3 C         144.1873  140.7431  161.6508 C.3     1  UNL1        0.0741
      4 N         143.9018  142.1504  161.2171 N.3     1  UNL1       -0.2689
      5 C         143.5353  142.4359  159.7908 C.3     1  UNL1        0.0741
      6 C         143.4542  141.3141  158.7983 C.3     1  UNL1        0.0369
      7 O         141.1901  138.3557  158.9264 O.2     1  UNL1       -0.2668
      8 C         142.3838  138.0096  158.0867 C.2     1  UNL1        0.2806
      9 N         143.6586  138.7851  158.2395 N.am    1  UNL1       -0.2999
     10 H         144.4421  138.5579  157.6884 H       1  UNL1        0.1498
     11 C         142.3028  136.8878  157.0941 C.ar    1  UNL1        0.2014
     12 C         141.3435  136.9719  155.9440 C.ar    1  UNL1        0.0843
     13 C         141.2625  135.8502  154.9514 C.ar    1  UNL1        0.2018
     14 O         140.3032  135.9343  153.8013 O.2     1  UNL1       -0.2864
     15 C         142.1407  134.6443  155.1090 C.ar    1  UNL1        0.0737
     16 C         142.0596  133.5227  154.1164 C.ar    1  UNL1        0.0085
     17 C         142.9378  132.3169  154.2740 C.ar    1  UNL1        0.0299
     18 C         143.8971  132.2328  155.4241 C.ar    1  UNL1        0.1432
     19 F         144.7753  131.0270  155.5816 F       1  UNL1       -0.2041
     20 C         143.9781  133.3545  156.4167 C.ar    1  UNL1        0.0672
     21 C         143.0999  134.5603  156.2591 C.ar    1  UNL1        0.1508
     22 O         143.1810  135.6820  157.2517 O.2     1  UNL1       -0.4486
     23 C         143.9829  143.2721  162.2096 C.3     1  UNL1        0.0992
     24 C         142.7522  143.7133  162.9449 C.ar    1  UNL1       -0.0037
     25 C         141.8502  144.7498  162.3433 C.ar    1  UNL1        0.0003
     26 C         140.6195  145.1910  163.0787 C.ar    1  UNL1        0.0390
     27 C         140.2909  144.5957  164.4157 C.ar    1  UNL1        0.1658
     28 C         141.1929  143.5593  165.0173 C.ar    1  UNL1        0.1735
     29 F         140.8643  142.9639  166.3544 F       1  UNL1       -0.2010
     30 C         142.4236  143.1181  164.2819 C.ar    1  UNL1        0.0299
     31 O         139.0602  145.0369  165.1510 O.3     1  UNL1       -0.4731
     32 C         137.7612  144.3177  164.9385 C.3     1  UNL1        0.2070
     33 C         137.7171  143.0858  164.0837 C.3     1  UNL1        0.0646
     34 C         138.0350  141.7469  164.6808 C.3     1  UNL1        0.0759
     35 N         138.1177  140.5343  163.8017 N.3     1  UNL1       -0.2726
     36 C         138.6509  139.2445  164.3512 C.3     1  UNL1        0.0721
     37 C         138.7336  138.0319  163.4722 C.3     1  UNL1        0.0174
     38 C         138.2831  138.1092  162.0435 C.3     1  UNL1        0.0029
     39 C         137.7498  139.3990  161.4939 C.3     1  UNL1        0.0174
     40 C         137.6672  140.6116  162.3730 C.3     1  UNL1        0.0721
@<TRIPOS>BOND
     1     7     8    2
     2     8     9   am
     3     9     1    1
     4     1     2    1
     5     2     3    1
     6     3     4    1
     7     4    23    1
     8    23    24    1
     9    24    25   ar
    10    25    26   ar
    11    26    27   ar
    12    27    31    1
    13    31    32    1
    14    32    33    1
    15    33    34    1
    16    34    35    1
    17    35    36    1
    18    36    37    1
    19    37    38    1
    20    38    39    1
    21    39    40    1
    22    27    28   ar
    23    28    29    1
    24    28    30   ar
    25     4     5    1
    26     5     6    1
    27     8    11    1
    28    11    12   ar
    29    12    13   ar
    30    13    14    2
    31    13    15   ar
    32    15    16   ar
    33    16    17   ar
    34    17    18   ar
    35    18    19    1
    36    18    20   ar
    37    20    21   ar
    38    21    22   ar
    39     6     1    1
    40    22    11   ar
    41    30    24   ar
    42    21    15   ar
    43    40    35    1
    44     9    10    1
@<TRIPOS>MOLECULE
*****
 40 44 0 0 0
SMALL
GASTEIGER

@<TRIPOS>ATOM
      1 C         143.6588  139.8569  160.2178 C.3     1  UNL1        0.0747
      2 C         144.2278  139.4718  161.5512 C.3     1  UNL1        0.0369
      3 C         144.3178  140.4887  162.6501 C.3     1  UNL1        0.0741
      4 N         143.8388  141.8908  162.4157 N.3     1  UNL1       -0.2689
      5 C         143.2698  142.2758  161.0823 C.3     1  UNL1        0.0741
      6 C         143.1798  141.2588  159.9833 C.3     1  UNL1        0.0369
      7 O         141.0579  138.4655  159.6709 O.2     1  UNL1       -0.2668
      8 C         142.2683  138.1443  158.8454 C.2     1  UNL1        0.2806
      9 N         143.5688  138.8400  159.1188 N.am    1  UNL1       -0.2999
     10 H         144.3633  138.6291  158.5770 H       1  UNL1        0.1498
     11 C         142.1784  137.1273  157.7464 C.ar    1  UNL1        0.2014
     12 C         141.1779  137.3024  156.6426 C.ar    1  UNL1        0.0843
     13 C         141.0879  136.2855  155.5436 C.ar    1  UNL1        0.2018
     14 O         140.0874  136.4606  154.4399 O.2     1  UNL1       -0.2864
     15 C         141.9985  135.0935  155.5484 C.ar    1  UNL1        0.0737
     16 C         141.9085  134.0766  154.4494 C.ar    1  UNL1        0.0085
     17 C         142.8190  132.8846  154.4542 C.ar    1  UNL1        0.0299
     18 C         143.8195  132.7095  155.5579 C.ar    1  UNL1        0.1432
     19 F         144.7301  131.5175  155.5627 F       1  UNL1       -0.2041
     20 C         143.9095  133.7264  156.6569 C.ar    1  UNL1        0.0672
     21 C         142.9990  134.9184  156.6521 C.ar    1  UNL1        0.1508
     22 O         143.0889  135.9353  157.7511 O.2     1  UNL1       -0.4486
     23 C         143.9288  142.9077  163.5147 C.3     1  UNL1        0.0992
     24 C         143.0198  142.8093  164.7039 C.ar    1  UNL1       -0.0037
     25 C         143.5407  142.2709  166.0034 C.ar    1  UNL1        0.0003
     26 C         142.6317  142.1725  167.1926 C.ar    1  UNL1        0.0390
     27 C         141.2020  142.6125  167.0822 C.ar    1  UNL1        0.1658
     28 C         140.6812  143.1509  165.7827 C.ar    1  UNL1        0.1735
     29 F         139.2514  143.5909  165.6723 F       1  UNL1       -0.2010
     30 C         141.5901  143.2493  164.5935 C.ar    1  UNL1        0.0299
     31 O         140.2931  142.5141  168.2714 O.3     1  UNL1       -0.4731
     32 C         140.2221  141.2387  169.0577 C.3     1  UNL1        0.2070
     33 C         140.0353  139.9300  168.3488 C.3     1  UNL1        0.0646
     34 C         139.2699  139.8778  167.0597 C.3     1  UNL1        0.0759
     35 N         139.8094  139.0969  165.8983 N.3     1  UNL1       -0.2726
     36 C         138.8708  138.3618  164.9880 C.3     1  UNL1        0.0721
     37 C         139.4103  137.5809  163.8265 C.3     1  UNL1        0.0174
     38 C         140.8884  137.5350  163.5753 C.3     1  UNL1        0.0029
     39 C         141.8271  138.2700  164.4856 C.3     1  UNL1        0.0174
     40 C         141.2876  139.0510  165.6471 C.3     1  UNL1        0.0721
@<TRIPOS>BOND
     1     7     8    2
     2     8     9   am
     3     9     1    1
     4     1     2    1
     5     2     3    1
     6     3     4    1
     7     4    23    1
     8    23    24    1
     9    24    25   ar
    10    25    26   ar
    11    26    27   ar
    12    27    31    1
    13    31    32    1
    14    32    33    1
    15    33    34    1
    16    34    35    1
    17    35    36    1
    18    36    37    1
    19    37    38    1
    20    38    39    1
    21    39    40    1
    22    27    28   ar
    23    28    29    1
    24    28    30   ar
    25     4     5    1
    26     5     6    1
    27     8    11    1
    28    11    12   ar
    29    12    13   ar
    30    13    14    2
    31    13    15   ar
    32    15    16   ar
    33    16    17   ar
    34    17    18   ar
    35    18    19    1
    36    18    20   ar
    37    20    21   ar
    38    21    22   ar
    39     6     1    1
    40    22    11   ar
    41    30    24   ar
    42    21    15   ar
    43    40    35    1
    44     9    10    1
@<TRIPOS>MOLECULE
*****
 40 44 0 0 0
SMALL
GASTEIGER

@<TRIPOS>ATOM
      1 C         143.2963  139.4830  157.3045 C.3     1  UNL1        0.0747
      2 C         143.6535  139.8783  158.7067 C.3     1  UNL1        0.0369
      3 C         143.3670  141.2691  159.1899 C.3     1  UNL1        0.0741
      4 N         142.7233  142.2647  158.2709 N.3     1  UNL1       -0.2689
      5 C         142.3661  141.8694  156.8687 C.3     1  UNL1        0.0741
      6 C         142.6526  140.4785  156.3855 C.3     1  UNL1        0.0369
      7 O         141.1042  137.4360  157.2400 O.2     1  UNL1       -0.2668
      8 C         142.4868  137.0687  156.7890 C.2     1  UNL1        0.2806
      9 N         143.5829  138.0922  156.8213 N.am    1  UNL1       -0.2999
     10 H         144.4903  137.8512  156.5253 H       1  UNL1        0.1498
     11 C         142.7734  135.6779  156.3058 C.ar    1  UNL1        0.2014
     12 C         142.3695  135.2670  154.9208 C.ar    1  UNL1        0.0843
     13 C         142.6560  133.8762  154.4376 C.ar    1  UNL1        0.2018
     14 O         142.2521  133.4653  153.0526 O.2     1  UNL1       -0.2864
     15 C         143.3465  132.8963  155.3393 C.ar    1  UNL1        0.0737
     16 C         143.6331  131.5055  154.8560 C.ar    1  UNL1        0.0085
     17 C         144.3235  130.5256  155.7576 C.ar    1  UNL1        0.0299
     18 C         144.7274  130.9365  157.1426 C.ar    1  UNL1        0.1432
     19 F         145.4179  129.9565  158.0443 F       1  UNL1       -0.2041
     20 C         144.4409  132.3272  157.6258 C.ar    1  UNL1        0.0672
     21 C         143.7504  133.3071  156.7242 C.ar    1  UNL1        0.1508
     22 O         143.4638  134.6980  157.2074 O.2     1  UNL1       -0.4486
     23 C         142.4367  143.6555  158.7541 C.3     1  UNL1        0.0992
     24 C         141.3127  143.8982  159.7173 C.ar    1  UNL1       -0.0037
     25 C         140.3325  142.8032  160.0173 C.ar    1  UNL1        0.0003
     26 C         139.2085  143.0458  160.9805 C.ar    1  UNL1        0.0390
     27 C         139.0646  144.3836  161.6436 C.ar    1  UNL1        0.1658
     28 C         140.0448  145.4786  161.3435 C.ar    1  UNL1        0.1735
     29 F         139.9010  146.8164  162.0067 F       1  UNL1       -0.2010
     30 C         141.1689  145.2359  160.3804 C.ar    1  UNL1        0.0299
     31 O         137.9406  144.6263  162.6067 O.3     1  UNL1       -0.4731
     32 C         138.0952  144.2489  164.0502 C.3     1  UNL1        0.2070
     33 C         139.3168  144.6737  164.8098 C.3     1  UNL1        0.0646
     34 C         140.4301  143.6967  165.0468 C.3     1  UNL1        0.0759
     35 N         141.6464  143.7184  164.1692 N.3     1  UNL1       -0.2726
     36 C         142.4789  144.9623  164.0718 C.3     1  UNL1        0.0721
     37 C         143.6952  144.9840  163.1942 C.3     1  UNL1        0.0174
     38 C         144.0790  143.7617  162.4140 C.3     1  UNL1        0.0029
     39 C         143.2465  142.5177  162.5114 C.3     1  UNL1        0.0174
     40 C         142.0302  142.4960  163.3889 C.3     1  UNL1        0.0721
@<TRIPOS>BOND
     1     7     8    2
     2     8     9   am
     3     9     1    1
     4     1     2    1
     5     2     3    1
     6     3     4    1
     7     4    23    1
     8    23    24    1
     9    24    25   ar
    10    25    26   ar
    11    26    27   ar
    12    27    31    1
    13    31    32    1
    14    32    33    1
    15    33    34    1
    16    34    35    1
    17    35    36    1
    18    36    37    1
    19    37    38    1
    20    38    39    1
    21    39    40    1
    22    27    28   ar
    23    28    29    1
    24    28    30   ar
    25     4     5    1
    26     5     6    1
    27     8    11    1
    28    11    12   ar
    29    12    13   ar
    30    13    14    2
    31    13    15   ar
    32    15    16   ar
    33    16    17   ar
    34    17    18   ar
    35    18    19    1
    36    18    20   ar
    37    20    21   ar
    38    21    22   ar
    39     6     1    1
    40    22    11   ar
    41    30    24   ar
    42    21    15   ar
    43    40    35    1
    44     9    10    1
@<TRIPOS>MOLECULE
*****
 40 44 0 0 0
SMALL
GASTEIGER

@<TRIPOS>ATOM
      1 C         139.6003  141.7198  158.0103 C.3     1  UNL1        0.0747
      2 C         138.2479  141.2620  158.4702 C.3     1  UNL1        0.0369
      3 C         138.1322  140.1419  159.4611 C.3     1  UNL1        0.0741
      4 N         139.3689  139.4796  159.9922 N.3     1  UNL1       -0.2689
      5 C         140.7212  139.9373  159.5323 C.3     1  UNL1        0.0741
      6 C         140.8369  141.0575  158.5413 C.3     1  UNL1        0.0369
      7 O         139.7033  144.5621  158.9645 O.2     1  UNL1       -0.2668
      8 C         139.7675  144.2610  157.4965 C.2     1  UNL1        0.2806
      9 N         139.7161  142.8399  157.0194 N.am    1  UNL1       -0.2999
     10 H         139.7582  142.6423  156.0559 H       1  UNL1        0.1498
     11 C         139.8833  145.3811  156.5055 C.ar    1  UNL1        0.2014
     12 C         140.6589  145.1830  155.2370 C.ar    1  UNL1        0.0843
     13 C         140.7747  146.3031  154.2460 C.ar    1  UNL1        0.2018
     14 O         141.5503  146.1049  152.9775 O.2     1  UNL1       -0.2864
     15 C         140.1148  147.6213  154.5235 C.ar    1  UNL1        0.0737
     16 C         140.2306  148.7413  153.5325 C.ar    1  UNL1        0.0085
     17 C         139.5707  150.0594  153.8100 C.ar    1  UNL1        0.0299
     18 C         138.7951  150.2575  155.0786 C.ar    1  UNL1        0.1432
     19 F         138.1352  151.5757  155.3561 F       1  UNL1       -0.2041
     20 C         138.6793  149.1375  156.0696 C.ar    1  UNL1        0.0672
     21 C         139.3392  147.8194  155.7920 C.ar    1  UNL1        0.1508
     22 O         139.2234  146.6993  156.7830 O.2     1  UNL1       -0.4486
     23 C         139.2531  138.3595  160.9831 C.3     1  UNL1        0.0992
     24 C         139.3502  138.6450  162.4525 C.ar    1  UNL1       -0.0037
     25 C         138.2510  139.3947  163.1451 C.ar    1  UNL1        0.0003
     26 C         138.3481  139.6802  164.6144 C.ar    1  UNL1        0.0390
     27 C         139.5443  139.2160  165.3913 C.ar    1  UNL1        0.1658
     28 C         140.6435  138.4663  164.6987 C.ar    1  UNL1        0.1735
     29 F         141.8398  138.0020  165.4755 F       1  UNL1       -0.2010
     30 C         140.5464  138.1808  163.2293 C.ar    1  UNL1        0.0299
     31 O         139.6413  139.5015  166.8606 O.3     1  UNL1       -0.4731
     32 C         139.9492  140.8904  167.3361 C.3     1  UNL1        0.2070
     33 C         140.8970  141.7560  166.5598 C.3     1  UNL1        0.0646
     34 C         140.4094  143.0299  165.9357 C.3     1  UNL1        0.0759
     35 N         139.7465  143.0001  164.5904 N.3     1  UNL1       -0.2726
     36 C         138.3189  143.4378  164.4480 C.3     1  UNL1        0.0721
     37 C         137.6560  143.4080  163.1027 C.3     1  UNL1        0.0174
     38 C         138.4207  142.9406  161.9000 C.3     1  UNL1        0.0029
     39 C         139.8484  142.5029  162.0424 C.3     1  UNL1        0.0174
     40 C         140.5113  142.5327  163.3876 C.3     1  UNL1        0.0721
@<TRIPOS>BOND
     1     7     8    2
     2     8     9   am
     3     9     1    1
     4     1     2    1
     5     2     3    1
     6     3     4    1
     7     4    23    1
     8    23    24    1
     9    24    25   ar
    10    25    26   ar
    11    26    27   ar
    12    27    31    1
    13    31    32    1
    14    32    33    1
    15    33    34    1
    16    34    35    1
    17    35    36    1
    18    36    37    1
    19    37    38    1
    20    38    39    1
    21    39    40    1
    22    27    28   ar
    23    28    29    1
    24    28    30   ar
    25     4     5    1
    26     5     6    1
    27     8    11    1
    28    11    12   ar
    29    12    13   ar
    30    13    14    2
    31    13    15   ar
    32    15    16   ar
    33    16    17   ar
    34    17    18   ar
    35    18    19    1
    36    18    20   ar
    37    20    21   ar
    38    21    22   ar
    39     6     1    1
    40    22    11   ar
    41    30    24   ar
    42    21    15   ar
    43    40    35    1
    44     9    10    1
@<TRIPOS>MOLECULE
*****
 40 44 0 0 0
SMALL
GASTEIGER

@<TRIPOS>ATOM
      1 C         139.5813  141.9442  157.7444 C.3     1  UNL1        0.0747
      2 C         138.2400  141.3644  158.0831 C.3     1  UNL1        0.0369
      3 C         138.1395  140.2201  159.0477 C.3     1  UNL1        0.0741
      4 N         139.3803  139.6555  159.6736 N.3     1  UNL1       -0.2689
      5 C         140.7216  140.2353  159.3349 C.3     1  UNL1        0.0741
      6 C         140.8221  141.3797  158.3703 C.3     1  UNL1        0.0369
      7 O         139.6896  144.7626  158.7666 O.2     1  UNL1       -0.2668
      8 C         139.7360  144.4977  157.2910 C.2     1  UNL1        0.2806
      9 N         139.6818  143.0885  156.7799 N.am    1  UNL1       -0.2999
     10 H         139.7123  142.9147  155.8113 H       1  UNL1        0.1498
     11 C         139.8365  145.6420  156.3263 C.ar    1  UNL1        0.2014
     12 C         140.5866  145.4735  155.0383 C.ar    1  UNL1        0.0843
     13 C         140.6871  146.6177  154.0737 C.ar    1  UNL1        0.2018
     14 O         141.4371  146.4491  152.7856 O.2     1  UNL1       -0.2864
     15 C         140.0376  147.9306  154.3971 C.ar    1  UNL1        0.0737
     16 C         140.1382  149.0749  153.4325 C.ar    1  UNL1        0.0085
     17 C         139.4887  150.3877  153.7559 C.ar    1  UNL1        0.0299
     18 C         138.7387  150.5563  155.0439 C.ar    1  UNL1        0.1432
     19 F         138.0892  151.8692  155.3673 F       1  UNL1       -0.2041
     20 C         138.6381  149.4120  156.0085 C.ar    1  UNL1        0.0672
     21 C         139.2876  148.0992  155.6851 C.ar    1  UNL1        0.1508
     22 O         139.1871  146.9549  156.6498 O.2     1  UNL1       -0.4486
     23 C         139.2798  138.5112  160.6381 C.3     1  UNL1        0.0992
     24 C         138.9668  138.7724  162.0817 C.ar    1  UNL1       -0.0037
     25 C         138.4928  140.1286  162.5129 C.ar    1  UNL1        0.0003
     26 C         138.1799  140.3897  163.9565 C.ar    1  UNL1        0.0390
     27 C         138.3409  139.2947  164.9688 C.ar    1  UNL1        0.1658
     28 C         138.8149  137.9385  164.5376 C.ar    1  UNL1        0.1735
     29 F         138.9759  136.8433  165.5499 F       1  UNL1       -0.2010
     30 C         139.1278  137.6773  163.0940 C.ar    1  UNL1        0.0299
     31 O         138.0280  139.5558  166.4124 O.3     1  UNL1       -0.4731
     32 C         139.1417  139.7563  167.3969 C.3     1  UNL1        0.2070
     33 C         140.4070  140.4390  166.9691 C.3     1  UNL1        0.0646
     34 C         141.5857  139.6242  166.5254 C.3     1  UNL1        0.0759
     35 N         141.9591  139.5742  165.0735 N.3     1  UNL1       -0.2726
     36 C         142.4731  138.2986  164.4746 C.3     1  UNL1        0.0721
     37 C         142.8464  138.2487  163.0227 C.3     1  UNL1        0.0174
     38 C         142.7058  139.4744  162.1696 C.3     1  UNL1        0.0029
     39 C         142.1918  140.7501  162.7684 C.3     1  UNL1        0.0174
     40 C         141.8184  140.8000  164.2203 C.3     1  UNL1        0.0721
@<TRIPOS>BOND
     1     7     8    2
     2     8     9   am
     3     9     1    1
     4     1     2    1
     5     2     3    1
     6     3     4    1
     7     4    23    1
     8    23    24    1
     9    24    25   ar
    10    25    26   ar
    11    26    27   ar
    12    27    31    1
    13    31    32    1
    14    32    33    1
    15    33    34    1
    16    34    35    1
    17    35    36    1
    18    36    37    1
    19    37    38    1
    20    38    39    1
    21    39    40    1
    22    27    28   ar
    23    28    29    1
    24    28    30   ar
    25     4     5    1
    26     5     6    1
    27     8    11    1
    28    11    12   ar
    29    12    13   ar
    30    13    14    2
    31    13    15   ar
    32    15    16   ar
    33    16    17   ar
    34    17    18   ar
    35    18    19    1
    36    18    20   ar
    37    20    21   ar
    38    21    22   ar
    39     6     1    1
    40    22    11   ar
    41    30    24   ar
    42    21    15   ar
    43    40    35    1
    44     9    10    1
@<TRIPOS>MOLECULE
*****
 40 44 0 0 0
SMALL
GASTEIGER

@<TRIPOS>ATOM
      1 C         139.6192  144.5079  160.7917 C.3     1  UNL1        0.0747
      2 C         140.0588  145.4515  161.8717 C.3     1  UNL1        0.0369
      3 C         139.8661  145.0839  163.3130 C.3     1  UNL1        0.0741
      4 N         139.2338  143.7725  163.6746 N.3     1  UNL1       -0.2689
      5 C         138.7942  142.8289  162.5946 C.3     1  UNL1        0.0741
      6 C         138.9869  143.1966  161.1531 C.3     1  UNL1        0.0369
      7 O         142.3348  144.2839  159.5366 O.2     1  UNL1       -0.2668
      8 C         141.1696  144.7635  158.7228 C.2     1  UNL1        0.2806
      9 N         139.8118  144.8755  159.3503 N.am    1  UNL1       -0.2999
     10 H         139.0471  145.1903  158.8161 H       1  UNL1        0.1498
     11 C         141.3623  145.1312  157.2813 C.ar    1  UNL1        0.2014
     12 C         142.3033  144.3376  156.4242 C.ar    1  UNL1        0.0843
     13 C         142.4960  144.7052  154.9828 C.ar    1  UNL1        0.2018
     14 O         143.4370  143.9116  154.1256 O.2     1  UNL1       -0.2864
     15 C         141.7476  145.8665  154.3984 C.ar    1  UNL1        0.0737
     16 C         141.9402  146.2341  152.9570 C.ar    1  UNL1        0.0085
     17 C         141.1919  147.3954  152.3727 C.ar    1  UNL1        0.0299
     18 C         140.2509  148.1890  153.2298 C.ar    1  UNL1        0.1432
     19 F         139.5025  149.3503  152.6455 F       1  UNL1       -0.2041
     20 C         140.0582  147.8214  154.6712 C.ar    1  UNL1        0.0672
     21 C         140.8066  146.6601  155.2555 C.ar    1  UNL1        0.1508
     22 O         140.6139  146.2925  156.6970 O.2     1  UNL1       -0.4486
     23 C         139.0411  143.4049  165.1160 C.3     1  UNL1        0.0992
     24 C         139.9315  142.3802  165.7541 C.ar    1  UNL1       -0.0037
     25 C         139.4613  140.9631  165.8976 C.ar    1  UNL1        0.0003
     26 C         140.3517  139.9384  166.5357 C.ar    1  UNL1        0.0390
     27 C         141.7123  140.3309  167.0304 C.ar    1  UNL1        0.1658
     28 C         142.1825  141.7480  166.8870 C.ar    1  UNL1        0.1735
     29 F         143.5431  142.1405  167.3817 F       1  UNL1       -0.2010
     30 C         141.2921  142.7727  166.2488 C.ar    1  UNL1        0.0299
     31 O         142.6027  139.3062  167.6686 O.3     1  UNL1       -0.4731
     32 C         143.4553  138.4165  166.8134 C.3     1  UNL1        0.2070
     33 C         143.4773  138.6036  165.3252 C.3     1  UNL1        0.0646
     34 C         144.4824  139.5251  164.7000 C.3     1  UNL1        0.0759
     35 N         144.0363  140.8258  164.1006 N.3     1  UNL1       -0.2726
     36 C         142.7678  140.8880  163.3026 C.3     1  UNL1        0.0721
     37 C         142.3218  142.1887  162.7032 C.3     1  UNL1        0.0174
     38 C         143.1443  143.4272  162.9020 C.3     1  UNL1        0.0029
     39 C         144.4129  143.3651  163.7001 C.3     1  UNL1        0.0174
     40 C         144.8589  142.0644  164.2994 C.3     1  UNL1        0.0721
@<TRIPOS>BOND
     1     7     8    2
     2     8     9   am
     3     9     1    1
     4     1     2    1
     5     2     3    1
     6     3     4    1
     7     4    23    1
     8    23    24    1
     9    24    25   ar
    10    25    26   ar
    11    26    27   ar
    12    27    31    1
    13    31    32    1
    14    32    33    1
    15    33    34    1
    16    34    35    1
    17    35    36    1
    18    36    37    1
    19    37    38    1
    20    38    39    1
    21    39    40    1
    22    27    28   ar
    23    28    29    1
    24    28    30   ar
    25     4     5    1
    26     5     6    1
    27     8    11    1
    28    11    12   ar
    29    12    13   ar
    30    13    14    2
    31    13    15   ar
    32    15    16   ar
    33    16    17   ar
    34    17    18   ar
    35    18    19    1
    36    18    20   ar
    37    20    21   ar
    38    21    22   ar
    39     6     1    1
    40    22    11   ar
    41    30    24   ar
    42    21    15   ar
    43    40    35    1
    44     9    10    1
@<TRIPOS>MOLECULE
*****
 40 44 0 0 0
SMALL
GASTEIGER

@<TRIPOS>ATOM
      1 C         142.4132  140.1449  158.5838 C.3     1  UNL1        0.0747
      2 C         143.7312  140.7437  158.9764 C.3     1  UNL1        0.0369
      3 C         143.7767  141.8846  159.9490 C.3     1  UNL1        0.0741
      4 N         142.5041  142.4269  160.5291 N.3     1  UNL1       -0.2689
      5 C         141.1860  141.8281  160.1364 C.3     1  UNL1        0.0741
      6 C         141.1406  140.6871  159.1638 C.3     1  UNL1        0.0369
      7 O         142.9240  137.3447  159.5314 O.2     1  UNL1       -0.2668
      8 C         142.6231  137.6038  158.0850 C.2     1  UNL1        0.2806
      9 N         142.3677  139.0039  157.6111 N.am    1  UNL1       -0.2999
     10 H         142.1702  139.1739  156.6618 H       1  UNL1        0.1498
     11 C         142.5776  136.4628  157.1123 C.ar    1  UNL1        0.2014
     12 C         141.6521  136.5189  155.9332 C.ar    1  UNL1        0.0843
     13 C         141.6066  135.3780  154.9605 C.ar    1  UNL1        0.2018
     14 O         140.6811  135.4341  153.7814 O.2     1  UNL1       -0.2864
     15 C         142.4866  134.1809  155.1669 C.ar    1  UNL1        0.0737
     16 C         142.4411  133.0399  154.1942 C.ar    1  UNL1        0.0085
     17 C         143.3211  131.8429  154.4006 C.ar    1  UNL1        0.0299
     18 C         144.2467  131.7868  155.5797 C.ar    1  UNL1        0.1432
     19 F         145.1267  130.5897  155.7860 F       1  UNL1       -0.2041
     20 C         144.2922  132.9277  156.5524 C.ar    1  UNL1        0.0672
     21 C         143.4122  134.1247  156.3459 C.ar    1  UNL1        0.1508
     22 O         143.4577  135.2658  157.3187 O.2     1  UNL1       -0.4486
     23 C         142.5495  143.5679  161.5017 C.3     1  UNL1        0.0992
     24 C         142.1187  143.3593  162.9232 C.ar    1  UNL1       -0.0037
     25 C         140.6676  143.4601  163.2896 C.ar    1  UNL1        0.0003
     26 C         140.2368  143.2515  164.7112 C.ar    1  UNL1        0.0390
     27 C         141.2569  142.9420  165.7664 C.ar    1  UNL1        0.1658
     28 C         142.7079  142.8411  165.4000 C.ar    1  UNL1        0.1735
     29 F         143.7282  142.5316  166.4552 F       1  UNL1       -0.2010
     30 C         143.1388  143.0498  163.9784 C.ar    1  UNL1        0.0299
     31 O         140.8260  142.7334  167.1879 O.3     1  UNL1       -0.4731
     32 C         140.2635  141.4100  167.6146 C.3     1  UNL1        0.2070
     33 C         141.0807  140.1619  167.4578 C.3     1  UNL1        0.0646
     34 C         140.9613  139.3392  166.2092 C.3     1  UNL1        0.0759
     35 N         142.0429  139.3900  165.1712 N.3     1  UNL1       -0.2726
     36 C         141.6873  139.5780  163.7261 C.3     1  UNL1        0.0721
     37 C         142.7689  139.6289  162.6881 C.3     1  UNL1        0.0174
     38 C         144.2061  139.4918  163.0951 C.3     1  UNL1        0.0029
     39 C         144.5617  139.3038  164.5402 C.3     1  UNL1        0.0174
     40 C         143.4801  139.2529  165.5783 C.3     1  UNL1        0.0721
@<TRIPOS>BOND
     1     7     8    2
     2     8     9   am
     3     9     1    1
     4     1     2    1
     5     2     3    1
     6     3     4    1
     7     4    23    1
     8    23    24    1
     9    24    25   ar
    10    25    26   ar
    11    26    27   ar
    12    27    31    1
    13    31    32    1
    14    32    33    1
    15    33    34    1
    16    34    35    1
    17    35    36    1
    18    36    37    1
    19    37    38    1
    20    38    39    1
    21    39    40    1
    22    27    28   ar
    23    28    29    1
    24    28    30   ar
    25     4     5    1
    26     5     6    1
    27     8    11    1
    28    11    12   ar
    29    12    13   ar
    30    13    14    2
    31    13    15   ar
    32    15    16   ar
    33    16    17   ar
    34    17    18   ar
    35    18    19    1
    36    18    20   ar
    37    20    21   ar
    38    21    22   ar
    39     6     1    1
    40    22    11   ar
    41    30    24   ar
    42    21    15   ar
    43    40    35    1
    44     9    10    1
@<TRIPOS>MOLECULE
*****
 40 44 0 0 0
SMALL
GASTEIGER

@<TRIPOS>ATOM
      1 C         142.1598  143.8739  159.0286 C.3     1  UNL1        0.0747
      2 C         140.6874  143.8523  158.7429 C.3     1  UNL1        0.0369
      3 C         139.7032  143.9244  159.8725 C.3     1  UNL1        0.0741
      4 N         140.1913  144.0181  161.2878 N.3     1  UNL1       -0.2689
      5 C         141.6637  144.0397  161.5735 C.3     1  UNL1        0.0741
      6 C         142.6480  143.9676  160.4438 C.3     1  UNL1        0.0369
      7 O         143.4728  141.2639  158.3473 O.2     1  UNL1       -0.2668
      8 C         143.8006  142.4968  157.5584 C.2     1  UNL1        0.2806
      9 N         143.1441  143.8018  157.8990 N.am    1  UNL1       -0.2999
     10 H         143.3592  144.6110  157.3811 H       1  UNL1        0.1498
     11 C         144.7849  142.4248  156.4287 C.ar    1  UNL1        0.2014
     12 C         144.3133  142.5728  155.0125 C.ar    1  UNL1        0.0843
     13 C         145.2975  142.5008  153.8829 C.ar    1  UNL1        0.2018
     14 O         144.8259  142.6489  152.4666 O.2     1  UNL1       -0.2864
     15 C         146.7534  142.2807  154.1694 C.ar    1  UNL1        0.0737
     16 C         147.7376  142.2087  153.0398 C.ar    1  UNL1        0.0085
     17 C         149.1934  141.9886  153.3264 C.ar    1  UNL1        0.0299
     18 C         149.6650  141.8406  154.7426 C.ar    1  UNL1        0.1432
     19 F         151.1209  141.6205  155.0292 F       1  UNL1       -0.2041
     20 C         148.6808  141.9126  155.8723 C.ar    1  UNL1        0.0672
     21 C         147.2250  142.1327  155.5857 C.ar    1  UNL1        0.1508
     22 O         146.2407  142.2047  156.7153 O.2     1  UNL1       -0.4486
     23 C         139.2071  144.0902  162.4174 C.3     1  UNL1        0.0992
     24 C         138.9077  142.8658  163.2307 C.ar    1  UNL1       -0.0037
     25 C         138.0107  141.7986  162.6772 C.ar    1  UNL1        0.0003
     26 C         137.7114  140.5743  163.4905 C.ar    1  UNL1        0.0390
     27 C         138.3091  140.4172  164.8572 C.ar    1  UNL1        0.1658
     28 C         139.2061  141.4844  165.4107 C.ar    1  UNL1        0.1735
     29 F         139.8039  141.3273  166.7775 F       1  UNL1       -0.2010
     30 C         139.5054  142.7087  164.5974 C.ar    1  UNL1        0.0299
     31 O         138.0098  139.1928  165.6705 O.3     1  UNL1       -0.4731
     32 C         138.7130  137.9024  165.3700 C.3     1  UNL1        0.2070
     33 C         140.0939  137.9195  164.7844 C.3     1  UNL1        0.0646
     34 C         140.3235  137.4164  163.3900 C.3     1  UNL1        0.0759
     35 N         140.2317  138.3600  162.2276 N.3     1  UNL1       -0.2726
     36 C         141.1351  139.5554  162.1589 C.3     1  UNL1        0.0721
     37 C         141.0433  140.4990  160.9965 C.3     1  UNL1        0.0174
     38 C         140.0481  140.2473  159.9028 C.3     1  UNL1        0.0029
     39 C         139.1446  139.0518  159.9716 C.3     1  UNL1        0.0174
     40 C         139.2364  138.1082  161.1339 C.3     1  UNL1        0.0721
@<TRIPOS>BOND
     1     7     8    2
     2     8     9   am
     3     9     1    1
     4     1     2    1
     5     2     3    1
     6     3     4    1
     7     4    23    1
     8    23    24    1
     9    24    25   ar
    10    25    26   ar
    11    26    27   ar
    12    27    31    1
    13    31    32    1
    14    32    33    1
    15    33    34    1
    16    34    35    1
    17    35    36    1
    18    36    37    1
    19    37    38    1
    20    38    39    1
    21    39    40    1
    22    27    28   ar
    23    28    29    1
    24    28    30   ar
    25     4     5    1
    26     5     6    1
    27     8    11    1
    28    11    12   ar
    29    12    13   ar
    30    13    14    2
    31    13    15   ar
    32    15    16   ar
    33    16    17   ar
    34    17    18   ar
    35    18    19    1
    36    18    20   ar
    37    20    21   ar
    38    21    22   ar
    39     6     1    1
    40    22    11   ar
    41    30    24   ar
    42    21    15   ar
    43    40    35    1
    44     9    10    1
