@<TRIPOS>MOLECULE
*****
 33 36 0 0 0
SMALL
GASTEIGER

@<TRIPOS>ATOM
      1 C         140.7370  136.8373  163.8594 C.3     1  UNL1        0.0203
      2 C         139.9002  138.0658  164.0618 C.3     1  UNL1        0.0888
      3 N         139.9456  138.7968  165.3708 N.3     1  UNL1       -0.2713
      4 C         138.7897  138.7037  166.3222 C.3     1  UNL1        0.0749
      5 C         138.8350  139.4347  167.6312 C.3     1  UNL1        0.0485
      6 C         140.0362  140.2588  167.9889 C.3     1  UNL1        0.1096
      7 O         139.1961  140.4784  169.2120 O.3     1  UNL1       -0.3826
      8 C         141.1922  140.3519  167.0374 C.3     1  UNL1        0.0485
      9 C         141.1468  139.6209  165.7284 C.3     1  UNL1        0.0749
     10 H         138.3617  139.9920  169.1228 H       1  UNL1        0.2107
     11 C         140.9457  141.1592  168.7713 C.ar    1  UNL1        0.0019
     12 C         142.3327  140.7058  169.1186 C.ar    1  UNL1        0.0003
     13 C         143.2422  141.6061  169.9010 C.ar    1  UNL1        0.0294
     14 C         142.7646  142.9600  170.3361 C.ar    1  UNL1        0.1401
     15 F         143.6741  143.8603  171.1185 F       1  UNL1       -0.2042
     16 C         141.3777  143.4133  169.9888 C.ar    1  UNL1        0.0294
     17 C         140.4681  142.5130  169.2064 C.ar    1  UNL1        0.0003
     18 C         139.0182  138.5631  162.9551 C.3     1  UNL1        0.1472
     19 O         138.3063  137.5863  162.0669 O.3     1  UNL1       -0.3787
     20 H         137.7825  138.0697  161.4090 H       1  UNL1        0.2108
     21 C         138.8481  140.0374  162.7367 C.ar    1  UNL1        0.0054
     22 C         137.7027  140.7633  163.3777 C.ar    1  UNL1       -0.0007
     23 C         137.5326  142.2375  163.1592 C.ar    1  UNL1        0.0142
     24 C         138.5080  142.9858  162.2998 C.ar    1  UNL1        0.0491
     25 C         139.6535  142.2599  161.6588 C.ar    1  UNL1        0.0110
     26 C         139.8235  140.7857  161.8772 C.ar    1  UNL1       -0.0033
     27 C         140.6289  143.0082  160.7993 C.3     1  UNL1        0.1230
     28 N         140.4588  144.4824  160.5808 N.am    1  UNL1       -0.2581
     29 C         141.4342  145.2306  159.7214 C.3     1  UNL1        0.1168
     30 C         139.3133  145.2084  161.2218 C.2     1  UNL1        0.3080
     31 O         139.1432  146.6825  161.0034 O.2     1  UNL1       -0.2522
     32 N         138.3379  144.4601  162.0813 N.am    1  UNL1       -0.2684
     33 H         137.5861  144.9365  162.5020 H       1  UNL1        0.1564
@<TRIPOS>BOND
     1     1     2    1
     2     2    18    1
     3    18    19    1
     4    18    21    1
     5    21    22   ar
     6    22    23   ar
     7    23    24   ar
     8    24    25   ar
     9    25    26   ar
    10    25    27    1
    11    27    28    1
    12    28    29    1
    13    28    30   am
    14    30    31    2
    15    30    32   am
    16     2     3    1
    17     3     4    1
    18     4     5    1
    19     5     6    1
    20     6     7    1
    21     6    11    1
    22    11    12   ar
    23    12    13   ar
    24    13    14   ar
    25    14    15    1
    26    14    16   ar
    27    16    17   ar
    28     6     8    1
    29     8     9    1
    30    26    21   ar
    31     9     3    1
    32    32    24    1
    33    17    11   ar
    34    19    20    1
    35    32    33    1
    36     7    10    1
@<TRIPOS>MOLECULE
*****
 33 36 0 0 0
SMALL
GASTEIGER

@<TRIPOS>ATOM
      1 C         138.7802  138.8193  162.8388 C.3     1  UNL1        0.0203
      2 C         138.5780  140.1124  163.5717 C.3     1  UNL1        0.0888
      3 N         139.0363  140.2483  164.9935 N.3     1  UNL1       -0.2713
      4 C         138.4936  139.3294  166.0475 C.3     1  UNL1        0.0749
      5 C         138.9519  139.4653  167.4693 C.3     1  UNL1        0.0485
      6 C         139.9530  140.5201  167.8370 C.3     1  UNL1        0.1096
      7 O         139.7311  139.8917  169.1809 O.3     1  UNL1       -0.3826
      8 C         140.4958  141.4390  166.7830 C.3     1  UNL1        0.0485
      9 C         140.0375  141.3032  165.3612 C.3     1  UNL1        0.0749
     10 H         139.0874  139.1708  169.0985 H       1  UNL1        0.2107
     11 C         140.8770  141.3567  168.6715 C.ar    1  UNL1        0.0019
     12 C         140.4105  142.6745  169.2152 C.ar    1  UNL1        0.0003
     13 C         141.3344  143.5111  170.0497 C.ar    1  UNL1        0.0294
     14 C         142.7252  143.0297  170.3404 C.ar    1  UNL1        0.1401
     15 F         143.6491  143.8663  171.1749 F       1  UNL1       -0.2042
     16 C         143.1917  141.7120  169.7967 C.ar    1  UNL1        0.0294
     17 C         142.2677  140.8754  168.9623 C.ar    1  UNL1        0.0003
     18 C         137.9175  141.2696  162.8827 C.3     1  UNL1        0.1472
     19 O         136.4227  141.3931  162.8905 O.3     1  UNL1       -0.3787
     20 H         136.1616  142.1909  162.4044 H       1  UNL1        0.2108
     21 C         138.7519  142.3033  162.1860 C.ar    1  UNL1        0.0054
     22 C         139.1937  143.5323  162.9238 C.ar    1  UNL1       -0.0007
     23 C         140.0280  144.5659  162.2271 C.ar    1  UNL1        0.0142
     24 C         140.4206  144.3705  160.7926 C.ar    1  UNL1        0.0491
     25 C         139.9789  143.1415  160.0549 C.ar    1  UNL1        0.0110
     26 C         139.1446  142.1079  160.7516 C.ar    1  UNL1       -0.0033
     27 C         140.3715  142.9461  158.6204 C.3     1  UNL1        0.1230
     28 N         141.2059  143.9797  157.9237 N.am    1  UNL1       -0.2581
     29 C         141.5985  143.7843  156.4892 C.3     1  UNL1        0.1168
     30 C         141.6477  145.2088  158.6614 C.2     1  UNL1        0.3080
     31 O         142.4820  146.2424  157.9647 O.2     1  UNL1       -0.2522
     32 N         141.2550  145.4042  160.0959 N.am    1  UNL1       -0.2684
     33 H         141.5450  146.2109  160.5801 H       1  UNL1        0.1564
@<TRIPOS>BOND
     1     1     2    1
     2     2    18    1
     3    18    19    1
     4    18    21    1
     5    21    22   ar
     6    22    23   ar
     7    23    24   ar
     8    24    25   ar
     9    25    26   ar
    10    25    27    1
    11    27    28    1
    12    28    29    1
    13    28    30   am
    14    30    31    2
    15    30    32   am
    16     2     3    1
    17     3     4    1
    18     4     5    1
    19     5     6    1
    20     6     7    1
    21     6    11    1
    22    11    12   ar
    23    12    13   ar
    24    13    14   ar
    25    14    15    1
    26    14    16   ar
    27    16    17   ar
    28     6     8    1
    29     8     9    1
    30    26    21   ar
    31     9     3    1
    32    32    24    1
    33    17    11   ar
    34    19    20    1
    35    32    33    1
    36     7    10    1
@<TRIPOS>MOLECULE
*****
 33 36 0 0 0
SMALL
GASTEIGER

@<TRIPOS>ATOM
      1 C         139.0988  138.4843  162.5453 C.3     1  UNL1        0.0203
      2 C         138.6232  139.7061  163.2742 C.3     1  UNL1        0.0888
      3 N         139.0042  139.9190  164.7093 N.3     1  UNL1       -0.2713
      4 C         138.3350  139.1217  165.7893 C.3     1  UNL1        0.0749
      5 C         138.7160  139.3347  167.2244 C.3     1  UNL1        0.0485
      6 C         139.7664  140.3450  167.5795 C.3     1  UNL1        0.1096
      7 O         139.4201  139.8373  168.9478 O.3     1  UNL1       -0.3826
      8 C         140.4357  141.1423  166.4995 C.3     1  UNL1        0.0485
      9 C         140.0546  140.9294  165.0644 C.3     1  UNL1        0.0749
     10 H         138.7324  139.1569  168.8759 H       1  UNL1        0.2107
     11 C         140.6964  141.1790  168.4098 C.ar    1  UNL1        0.0019
     12 C         142.1006  140.7140  168.6588 C.ar    1  UNL1        0.0003
     13 C         143.0307  141.5480  169.4891 C.ar    1  UNL1        0.0294
     14 C         142.5566  142.8470  170.0705 C.ar    1  UNL1        0.1401
     15 F         143.4867  143.6809  170.9008 F       1  UNL1       -0.2042
     16 C         141.1524  143.3119  169.8215 C.ar    1  UNL1        0.0294
     17 C         140.2223  142.4779  168.9911 C.ar    1  UNL1        0.0003
     18 C         137.7665  140.7147  162.5681 C.3     1  UNL1        0.1472
     19 O         136.5743  141.3036  163.2624 O.3     1  UNL1       -0.3787
     20 H         136.1339  141.9333  162.6705 H       1  UNL1        0.2108
     21 C         138.1019  141.1345  161.1676 C.ar    1  UNL1        0.0054
     22 C         137.7097  140.2653  160.0098 C.ar    1  UNL1       -0.0007
     23 C         138.0452  140.6851  158.6094 C.ar    1  UNL1        0.0142
     24 C         138.7728  141.9742  158.3668 C.ar    1  UNL1        0.0491
     25 C         139.1650  142.8434  159.5246 C.ar    1  UNL1        0.0110
     26 C         138.8295  142.4236  160.9250 C.ar    1  UNL1       -0.0033
     27 C         139.8926  144.1325  159.2820 C.3     1  UNL1        0.1230
     28 N         140.2280  144.5523  157.8816 N.am    1  UNL1       -0.2581
     29 C         140.9556  145.8414  157.6390 C.3     1  UNL1        0.1168
     30 C         139.8358  143.6830  156.7237 C.2     1  UNL1        0.3080
     31 O         140.1712  144.1029  155.3233 O.2     1  UNL1       -0.2522
     32 N         139.1082  142.3940  156.9663 N.am    1  UNL1       -0.2684
     33 H         138.8508  141.8234  156.2064 H       1  UNL1        0.1564
@<TRIPOS>BOND
     1     1     2    1
     2     2    18    1
     3    18    19    1
     4    18    21    1
     5    21    22   ar
     6    22    23   ar
     7    23    24   ar
     8    24    25   ar
     9    25    26   ar
    10    25    27    1
    11    27    28    1
    12    28    29    1
    13    28    30   am
    14    30    31    2
    15    30    32   am
    16     2     3    1
    17     3     4    1
    18     4     5    1
    19     5     6    1
    20     6     7    1
    21     6    11    1
    22    11    12   ar
    23    12    13   ar
    24    13    14   ar
    25    14    15    1
    26    14    16   ar
    27    16    17   ar
    28     6     8    1
    29     8     9    1
    30    26    21   ar
    31     9     3    1
    32    32    24    1
    33    17    11   ar
    34    19    20    1
    35    32    33    1
    36     7    10    1
@<TRIPOS>MOLECULE
*****
 33 36 0 0 0
SMALL
GASTEIGER

@<TRIPOS>ATOM
      1 C         139.9070  139.1804  162.2305 C.3     1  UNL1        0.0203
      2 C         139.4032  140.5585  162.5418 C.3     1  UNL1        0.0888
      3 N         139.9686  141.7449  161.8187 N.3     1  UNL1       -0.2713
      4 C         140.7809  142.7611  162.5652 C.3     1  UNL1        0.0749
      5 C         141.3463  143.9474  161.8421 C.3     1  UNL1        0.0485
      6 C         141.0994  144.1176  160.3724 C.3     1  UNL1        0.1096
      7 O         141.9256  145.3404  160.6410 O.3     1  UNL1       -0.3826
      8 C         140.2870  143.1013  159.6258 C.3     1  UNL1        0.0485
      9 C         139.7216  141.9150  160.3489 C.3     1  UNL1        0.0749
     10 H         142.1678  145.3672  161.5799 H       1  UNL1        0.2107
     11 C         141.1394  144.7124  158.9959 C.ar    1  UNL1        0.0019
     12 C         142.2387  144.3355  158.0477 C.ar    1  UNL1        0.0003
     13 C         142.2788  144.9303  156.6713 C.ar    1  UNL1        0.0294
     14 C         141.2193  145.9020  156.2431 C.ar    1  UNL1        0.1401
     15 F         141.2593  146.4968  154.8666 F       1  UNL1       -0.2042
     16 C         140.1199  146.2790  157.1913 C.ar    1  UNL1        0.0294
     17 C         140.0799  145.6841  158.5678 C.ar    1  UNL1        0.0003
     18 C         138.3341  140.7503  163.5763 C.3     1  UNL1        0.1472
     19 O         136.9475  141.1410  163.1583 O.3     1  UNL1       -0.3787
     20 H         136.3840  141.2227  163.9436 H       1  UNL1        0.2108
     21 C         138.6515  140.5514  165.0288 C.ar    1  UNL1        0.0054
     22 C         138.1268  139.3474  165.7532 C.ar    1  UNL1       -0.0007
     23 C         138.4442  139.1485  167.2056 C.ar    1  UNL1        0.0142
     24 C         139.2864  140.1538  167.9337 C.ar    1  UNL1        0.0491
     25 C         139.8112  141.3579  167.2093 C.ar    1  UNL1        0.0110
     26 C         139.4938  141.5567  165.7569 C.ar    1  UNL1       -0.0033
     27 C         140.6534  142.3631  167.9374 C.3     1  UNL1        0.1230
     28 N         140.9709  142.1643  169.3899 N.am    1  UNL1       -0.2581
     29 C         141.8131  143.1696  170.1179 C.3     1  UNL1        0.1168
     30 C         140.4461  140.9602  170.1143 C.2     1  UNL1        0.3080
     31 O         140.7636  140.7613  171.5667 O.2     1  UNL1       -0.2522
     32 N         139.6039  139.9549  169.3862 N.am    1  UNL1       -0.2684
     33 H         139.2595  139.1646  169.8616 H       1  UNL1        0.1564
@<TRIPOS>BOND
     1     1     2    1
     2     2    18    1
     3    18    19    1
     4    18    21    1
     5    21    22   ar
     6    22    23   ar
     7    23    24   ar
     8    24    25   ar
     9    25    26   ar
    10    25    27    1
    11    27    28    1
    12    28    29    1
    13    28    30   am
    14    30    31    2
    15    30    32   am
    16     2     3    1
    17     3     4    1
    18     4     5    1
    19     5     6    1
    20     6     7    1
    21     6    11    1
    22    11    12   ar
    23    12    13   ar
    24    13    14   ar
    25    14    15    1
    26    14    16   ar
    27    16    17   ar
    28     6     8    1
    29     8     9    1
    30    26    21   ar
    31     9     3    1
    32    32    24    1
    33    17    11   ar
    34    19    20    1
    35    32    33    1
    36     7    10    1
@<TRIPOS>MOLECULE
*****
 33 36 0 0 0
SMALL
GASTEIGER

@<TRIPOS>ATOM
      1 C         137.6896  140.8495  162.6429 C.3     1  UNL1        0.0203
      2 C         138.5418  139.8157  163.3175 C.3     1  UNL1        0.0888
      3 N         138.9561  140.0018  164.7471 N.3     1  UNL1       -0.2713
      4 C         138.3083  139.1879  165.8278 C.3     1  UNL1        0.0749
      5 C         138.7225  139.3741  167.2574 C.3     1  UNL1        0.0485
      6 C         139.7846  140.3741  167.6063 C.3     1  UNL1        0.1096
      7 O         139.4674  139.8435  168.9730 O.3     1  UNL1       -0.3826
      8 C         140.4325  141.1881  166.5257 C.3     1  UNL1        0.0485
      9 C         140.0182  141.0020  165.0961 C.3     1  UNL1        0.0749
     10 H         138.7756  139.1670  168.9047 H       1  UNL1        0.2107
     11 C         140.7366  141.1899  168.4299 C.ar    1  UNL1        0.0019
     12 C         140.2801  142.4786  169.0470 C.ar    1  UNL1        0.0003
     13 C         141.2320  143.2945  169.8706 C.ar    1  UNL1        0.0294
     14 C         142.6405  142.8215  170.0771 C.ar    1  UNL1        0.1401
     15 F         143.5923  143.6373  170.9007 F       1  UNL1       -0.2042
     16 C         143.0969  141.5328  169.4600 C.ar    1  UNL1        0.0294
     17 C         142.1450  140.7170  168.6364 C.ar    1  UNL1        0.0003
     18 C         138.9797  138.5958  162.5625 C.3     1  UNL1        0.1472
     19 O         138.2958  137.2819  162.7988 O.3     1  UNL1       -0.3787
     20 H         138.6974  136.6023  162.2351 H       1  UNL1        0.2108
     21 C         140.1016  138.6898  161.5712 C.ar    1  UNL1        0.0054
     22 C         141.5045  138.9263  162.0464 C.ar    1  UNL1       -0.0007
     23 C         142.6262  139.0203  161.0550 C.ar    1  UNL1        0.0142
     24 C         142.3451  138.8778  159.5885 C.ar    1  UNL1        0.0491
     25 C         140.9422  138.6413  159.1134 C.ar    1  UNL1        0.0110
     26 C         139.8204  138.5473  160.1047 C.ar    1  UNL1       -0.0033
     27 C         140.6610  138.4988  157.6469 C.3     1  UNL1        0.1230
     28 N         141.7827  138.5928  156.6555 N.am    1  UNL1       -0.2581
     29 C         141.5016  138.4502  155.1890 C.3     1  UNL1        0.1168
     30 C         143.1858  138.8293  157.1307 C.2     1  UNL1        0.3080
     31 O         144.3075  138.9233  156.1394 O.2     1  UNL1       -0.2522
     32 N         143.4669  138.9718  158.5972 N.am    1  UNL1       -0.2684
     33 H         144.3877  139.1270  158.9091 H       1  UNL1        0.1564
@<TRIPOS>BOND
     1     1     2    1
     2     2    18    1
     3    18    19    1
     4    18    21    1
     5    21    22   ar
     6    22    23   ar
     7    23    24   ar
     8    24    25   ar
     9    25    26   ar
    10    25    27    1
    11    27    28    1
    12    28    29    1
    13    28    30   am
    14    30    31    2
    15    30    32   am
    16     2     3    1
    17     3     4    1
    18     4     5    1
    19     5     6    1
    20     6     7    1
    21     6    11    1
    22    11    12   ar
    23    12    13   ar
    24    13    14   ar
    25    14    15    1
    26    14    16   ar
    27    16    17   ar
    28     6     8    1
    29     8     9    1
    30    26    21   ar
    31     9     3    1
    32    32    24    1
    33    17    11   ar
    34    19    20    1
    35    32    33    1
    36     7    10    1
@<TRIPOS>MOLECULE
*****
 33 36 0 0 0
SMALL
GASTEIGER

@<TRIPOS>ATOM
      1 C         144.2883  144.3021  162.3650 C.3     1  UNL1        0.0203
      2 C         144.1354  143.0239  163.1350 C.3     1  UNL1        0.0888
      3 N         143.1175  142.9267  164.2325 N.3     1  UNL1       -0.2713
      4 C         141.7761  143.5782  164.0712 C.3     1  UNL1        0.0749
      5 C         140.7583  143.4810  165.1687 C.3     1  UNL1        0.0485
      6 C         141.0818  142.7322  166.4275 C.3     1  UNL1        0.1096
      7 O         139.6841  143.1774  166.7412 O.3     1  UNL1       -0.3826
      8 C         142.4233  142.0806  166.5889 C.3     1  UNL1        0.0485
      9 C         143.4411  142.1778  165.4914 C.3     1  UNL1        0.0749
     10 H         139.3328  143.6891  165.9958 H       1  UNL1        0.2107
     11 C         140.9200  142.1380  167.7953 C.ar    1  UNL1        0.0019
     12 C         141.1275  140.6671  168.0034 C.ar    1  UNL1        0.0003
     13 C         140.9657  140.0729  169.3711 C.ar    1  UNL1        0.0294
     14 C         140.5963  140.9497  170.5309 C.ar    1  UNL1        0.1401
     15 F         140.4345  140.3555  171.8986 F       1  UNL1       -0.2042
     16 C         140.3888  142.4206  170.3228 C.ar    1  UNL1        0.0294
     17 C         140.5506  143.0148  168.9550 C.ar    1  UNL1        0.0003
     18 C         145.0003  141.8430  162.8075 C.3     1  UNL1        0.1472
     19 O         146.3983  141.7650  163.3455 O.3     1  UNL1       -0.3787
     20 H         146.8164  140.9442  163.0415 H       1  UNL1        0.2108
     21 C         144.4672  140.7400  161.9418 C.ar    1  UNL1        0.0054
     22 C         144.2021  139.3861  162.5306 C.ar    1  UNL1       -0.0007
     23 C         143.6690  138.2832  161.6650 C.ar    1  UNL1        0.0142
     24 C         143.4011  138.5341  160.2106 C.ar    1  UNL1        0.0491
     25 C         143.6662  139.8880  159.6218 C.ar    1  UNL1        0.0110
     26 C         144.1993  140.9909  160.4874 C.ar    1  UNL1       -0.0033
     27 C         143.3983  140.1389  158.1674 C.3     1  UNL1        0.1230
     28 N         142.8652  139.0360  157.3018 N.am    1  UNL1       -0.2581
     29 C         142.5973  139.2870  155.8474 C.3     1  UNL1        0.1168
     30 C         142.6001  137.6821  157.8905 C.2     1  UNL1        0.3080
     31 O         142.0670  136.5791  157.0249 O.2     1  UNL1       -0.2522
     32 N         142.8680  137.4311  159.3449 N.am    1  UNL1       -0.2684
     33 H         142.6940  136.5425  159.7313 H       1  UNL1        0.1564
@<TRIPOS>BOND
     1     1     2    1
     2     2    18    1
     3    18    19    1
     4    18    21    1
     5    21    22   ar
     6    22    23   ar
     7    23    24   ar
     8    24    25   ar
     9    25    26   ar
    10    25    27    1
    11    27    28    1
    12    28    29    1
    13    28    30   am
    14    30    31    2
    15    30    32   am
    16     2     3    1
    17     3     4    1
    18     4     5    1
    19     5     6    1
    20     6     7    1
    21     6    11    1
    22    11    12   ar
    23    12    13   ar
    24    13    14   ar
    25    14    15    1
    26    14    16   ar
    27    16    17   ar
    28     6     8    1
    29     8     9    1
    30    26    21   ar
    31     9     3    1
    32    32    24    1
    33    17    11   ar
    34    19    20    1
    35    32    33    1
    36     7    10    1
@<TRIPOS>MOLECULE
*****
 33 36 0 0 0
SMALL
GASTEIGER

@<TRIPOS>ATOM
      1 C         143.9513  139.3823  160.9174 C.3     1  UNL1        0.0203
      2 C         143.9945  140.4298  161.9903 C.3     1  UNL1        0.0888
      3 N         143.6060  140.0798  163.3962 N.3     1  UNL1       -0.2713
      4 C         144.4974  139.2026  164.2243 C.3     1  UNL1        0.0749
      5 C         144.1089  138.8527  165.6302 C.3     1  UNL1        0.0485
      6 C         142.8290  139.3799  166.2080 C.3     1  UNL1        0.1096
      7 O         143.3373  138.5906  167.3780 O.3     1  UNL1       -0.3826
      8 C         141.9376  140.2571  165.3799 C.3     1  UNL1        0.0485
      9 C         142.3260  140.6071  163.9739 C.3     1  UNL1        0.0749
     10 H         144.1846  138.1789  167.1467 H       1  UNL1        0.2107
     11 C         141.7256  139.6330  167.1921 C.ar    1  UNL1        0.0019
     12 C         140.2984  139.6494  166.7308 C.ar    1  UNL1        0.0003
     13 C         139.1950  139.9025  167.7149 C.ar    1  UNL1        0.0294
     14 C         139.5188  140.1392  169.1603 C.ar    1  UNL1        0.1401
     15 F         138.4154  140.3924  170.1443 F       1  UNL1       -0.2042
     16 C         140.9460  140.1228  169.6216 C.ar    1  UNL1        0.0294
     17 C         142.0494  139.8697  168.6375 C.ar    1  UNL1        0.0003
     18 C         144.4262  141.8272  161.6572 C.3     1  UNL1        0.1472
     19 O         145.8195  142.2789  161.9807 O.3     1  UNL1       -0.3787
     20 H         145.9333  143.2010  161.7021 H       1  UNL1        0.2108
     21 C         143.4646  142.7728  161.0006 C.ar    1  UNL1        0.0054
     22 C         142.4793  143.5385  161.8329 C.ar    1  UNL1       -0.0007
     23 C         141.5178  144.4842  161.1763 C.ar    1  UNL1        0.0142
     24 C         141.5415  144.6641  159.6873 C.ar    1  UNL1        0.0491
     25 C         142.5268  143.8984  158.8549 C.ar    1  UNL1        0.0110
     26 C         143.4883  142.9527  159.5116 C.ar    1  UNL1       -0.0033
     27 C         142.5506  144.0783  157.3660 C.3     1  UNL1        0.1230
     28 N         141.5890  145.0239  156.7093 N.am    1  UNL1       -0.2581
     29 C         141.6128  145.2038  155.2203 C.3     1  UNL1        0.1168
     30 C         140.6037  145.7896  157.5417 C.2     1  UNL1        0.3080
     31 O         139.6422  146.7353  156.8850 O.2     1  UNL1       -0.2522
     32 N         140.5799  145.6097  159.0307 N.am    1  UNL1       -0.2684
     33 H         139.9332  146.1123  159.5770 H       1  UNL1        0.1564
@<TRIPOS>BOND
     1     1     2    1
     2     2    18    1
     3    18    19    1
     4    18    21    1
     5    21    22   ar
     6    22    23   ar
     7    23    24   ar
     8    24    25   ar
     9    25    26   ar
    10    25    27    1
    11    27    28    1
    12    28    29    1
    13    28    30   am
    14    30    31    2
    15    30    32   am
    16     2     3    1
    17     3     4    1
    18     4     5    1
    19     5     6    1
    20     6     7    1
    21     6    11    1
    22    11    12   ar
    23    12    13   ar
    24    13    14   ar
    25    14    15    1
    26    14    16   ar
    27    16    17   ar
    28     6     8    1
    29     8     9    1
    30    26    21   ar
    31     9     3    1
    32    32    24    1
    33    17    11   ar
    34    19    20    1
    35    32    33    1
    36     7    10    1
@<TRIPOS>MOLECULE
*****
 33 36 0 0 0
SMALL
GASTEIGER

@<TRIPOS>ATOM
      1 C         140.1048  137.6956  162.4954 C.3     1  UNL1        0.0203
      2 C         141.3963  138.3353  162.9113 C.3     1  UNL1        0.0888
      3 N         141.5753  138.8161  164.3208 N.3     1  UNL1       -0.2713
      4 C         142.7600  138.3647  165.1225 C.3     1  UNL1        0.0749
      5 C         142.9390  138.8455  166.5320 C.3     1  UNL1        0.0485
      6 C         141.9334  139.7777  167.1399 C.3     1  UNL1        0.1096
      7 O         142.8834  139.6326  168.2916 O.3     1  UNL1       -0.3826
      8 C         140.7486  140.2292  166.3382 C.3     1  UNL1        0.0485
      9 C         140.5696  139.7483  164.9287 C.3     1  UNL1        0.0749
     10 H         143.6087  139.0398  168.0397 H       1  UNL1        0.2107
     11 C         141.2576  140.6596  168.1477 C.ar    1  UNL1        0.0019
     12 C         141.7385  142.0649  168.3569 C.ar    1  UNL1        0.0003
     13 C         141.0628  142.9467  169.3647 C.ar    1  UNL1        0.0294
     14 C         139.9060  142.4232  170.1634 C.ar    1  UNL1        0.1401
     15 F         139.2304  143.3050  171.1712 F       1  UNL1       -0.2042
     16 C         139.4251  141.0179  169.9543 C.ar    1  UNL1        0.0294
     17 C         140.1009  140.1361  168.9464 C.ar    1  UNL1        0.0003
     18 C         142.5087  138.4941  161.9177 C.3     1  UNL1        0.1472
     19 O         143.5098  137.3928  161.7302 O.3     1  UNL1       -0.3787
     20 H         144.1563  137.6549  161.0562 H       1  UNL1        0.2108
     21 C         142.6201  139.7542  161.1116 C.ar    1  UNL1        0.0054
     22 C         143.6258  139.8487  160.0027 C.ar    1  UNL1       -0.0007
     23 C         143.7372  141.1088  159.1966 C.ar    1  UNL1        0.0142
     24 C         142.8428  142.2743  159.4994 C.ar    1  UNL1        0.0491
     25 C         141.8371  142.1798  160.6083 C.ar    1  UNL1        0.0110
     26 C         141.7258  140.9197  161.4143 C.ar    1  UNL1       -0.0033
     27 C         140.9428  143.3453  160.9111 C.3     1  UNL1        0.1230
     28 N         141.0541  144.6054  160.1050 N.am    1  UNL1       -0.2581
     29 C         140.1598  145.7709  160.4078 C.3     1  UNL1        0.1168
     30 C         142.0599  144.7000  158.9961 C.2     1  UNL1        0.3080
     31 O         142.1712  145.9600  158.1900 O.2     1  UNL1       -0.2522
     32 N         142.9542  143.5344  158.6933 N.am    1  UNL1       -0.2684
     33 H         143.6143  143.5965  157.9655 H       1  UNL1        0.1564
@<TRIPOS>BOND
     1     1     2    1
     2     2    18    1
     3    18    19    1
     4    18    21    1
     5    21    22   ar
     6    22    23   ar
     7    23    24   ar
     8    24    25   ar
     9    25    26   ar
    10    25    27    1
    11    27    28    1
    12    28    29    1
    13    28    30   am
    14    30    31    2
    15    30    32   am
    16     2     3    1
    17     3     4    1
    18     4     5    1
    19     5     6    1
    20     6     7    1
    21     6    11    1
    22    11    12   ar
    23    12    13   ar
    24    13    14   ar
    25    14    15    1
    26    14    16   ar
    27    16    17   ar
    28     6     8    1
    29     8     9    1
    30    26    21   ar
    31     9     3    1
    32    32    24    1
    33    17    11   ar
    34    19    20    1
    35    32    33    1
    36     7    10    1
@<TRIPOS>MOLECULE
*****
 33 36 0 0 0
SMALL
GASTEIGER

@<TRIPOS>ATOM
      1 C         137.2908  140.8777  162.6486 C.3     1  UNL1        0.0203
      2 C         138.1395  141.9376  163.2864 C.3     1  UNL1        0.0888
      3 N         138.7874  141.6811  164.6147 N.3     1  UNL1       -0.2713
      4 C         138.6223  140.3493  165.2849 C.3     1  UNL1        0.0749
      5 C         139.2703  140.0928  166.6132 C.3     1  UNL1        0.0485
      6 C         140.0832  141.1680  167.2713 C.3     1  UNL1        0.1096
      7 O         140.2166  140.0781  168.2934 O.3     1  UNL1       -0.3826
      8 C         140.2482  142.4998  166.6011 C.3     1  UNL1        0.0485
      9 C         139.6003  142.7563  165.2728 C.3     1  UNL1        0.0749
     10 H         139.7277  139.2947  167.9964 H       1  UNL1        0.2107
     11 C         140.9425  141.8647  168.2843 C.ar    1  UNL1        0.0019
     12 C         140.3616  142.9506  169.1407 C.ar    1  UNL1        0.0003
     13 C         141.2208  143.6473  170.1538 C.ar    1  UNL1        0.0294
     14 C         142.6610  143.2581  170.3104 C.ar    1  UNL1        0.1401
     15 F         143.5202  143.9548  171.3235 F       1  UNL1       -0.2042
     16 C         143.2419  142.1722  169.4540 C.ar    1  UNL1        0.0294
     17 C         142.3826  141.4755  168.4410 C.ar    1  UNL1        0.0003
     18 C         138.3401  143.2540  162.5958 C.3     1  UNL1        0.1472
     19 O         137.3820  144.3822  162.8389 O.3     1  UNL1       -0.3787
     20 H         137.6540  145.1550  162.3195 H       1  UNL1        0.2108
     21 C         139.4990  143.4421  161.6620 C.ar    1  UNL1        0.0054
     22 C         139.9377  144.8247  161.2803 C.ar    1  UNL1       -0.0007
     23 C         141.0965  145.0128  160.3466 C.ar    1  UNL1        0.0142
     24 C         141.8165  143.8183  159.7947 C.ar    1  UNL1        0.0491
     25 C         141.3778  142.4357  160.1765 C.ar    1  UNL1        0.0110
     26 C         140.2190  142.2476  161.1101 C.ar    1  UNL1       -0.0033
     27 C         142.0979  141.2411  159.6246 C.3     1  UNL1        0.1230
     28 N         143.2566  141.4292  158.6909 N.am    1  UNL1       -0.2581
     29 C         143.9767  140.2347  158.1390 C.3     1  UNL1        0.1168
     30 C         143.6954  142.8119  158.3091 C.2     1  UNL1        0.3080
     31 O         144.8542  143.0000  157.3754 O.2     1  UNL1       -0.2522
     32 N         142.9754  144.0065  158.8610 N.am    1  UNL1       -0.2684
     33 H         143.2633  144.9140  158.6104 H       1  UNL1        0.1564
@<TRIPOS>BOND
     1     1     2    1
     2     2    18    1
     3    18    19    1
     4    18    21    1
     5    21    22   ar
     6    22    23   ar
     7    23    24   ar
     8    24    25   ar
     9    25    26   ar
    10    25    27    1
    11    27    28    1
    12    28    29    1
    13    28    30   am
    14    30    31    2
    15    30    32   am
    16     2     3    1
    17     3     4    1
    18     4     5    1
    19     5     6    1
    20     6     7    1
    21     6    11    1
    22    11    12   ar
    23    12    13   ar
    24    13    14   ar
    25    14    15    1
    26    14    16   ar
    27    16    17   ar
    28     6     8    1
    29     8     9    1
    30    26    21   ar
    31     9     3    1
    32    32    24    1
    33    17    11   ar
    34    19    20    1
    35    32    33    1
    36     7    10    1
