@<TRIPOS>MOLECULE
*****
 41 44 0 0 0
SMALL
GASTEIGER

@<TRIPOS>ATOM
      1 C         143.6284  140.3290  159.5674 C.2     1  UNL1        0.4052
      2 O         144.0106  139.6169  158.3037 O.2     1  UNL1       -0.2262
      3 N         142.6137  139.7240  160.4917 N.am    1  UNL1       -0.2460
      4 C         141.9003  138.4206  160.2863 C.3     1  UNL1        0.0968
      5 C         140.9800  138.2073  161.4514 C.3     1  UNL1        0.0234
      6 C         140.1735  138.2691  162.7146 C.3     1  UNL1        0.0231
      7 C         141.1245  139.3788  162.3769 C.3     1  UNL1        0.0234
      8 C         142.1342  140.3162  161.7838 C.3     1  UNL1        0.0968
      9 O         144.2609  141.6461  159.9067 O.3     1  UNL1       -0.4295
     10 C         143.4439  142.9033  159.8653 C.3     1  UNL1        0.2367
     11 C         143.4035  144.1666  163.6273 C.ar    1  UNL1        0.0685
     12 C         143.8684  143.5319  162.3502 C.ar    1  UNL1        0.0096
     13 C         142.9789  143.5381  161.1424 C.ar    1  UNL1        0.0222
     14 C         141.6245  144.1790  161.2117 C.ar    1  UNL1        0.0058
     15 C         141.1596  144.8137  162.4888 C.ar    1  UNL1        0.0763
     16 C         142.0491  144.8075  163.6966 C.ar    1  UNL1        0.0167
     17 N         145.1825  144.1542  166.0429 N.1     1  UNL1       -0.1908
     18 C         144.2930  144.1604  164.8351 C.1     1  UNL1        0.1004
     19 C         139.8052  145.4546  162.5581 C.2     1  UNL1        0.3466
     20 O         139.3055  146.2784  161.4085 O.2     1  UNL1       -0.2447
     21 O         138.9504  145.2717  163.7771 O.3     1  UNL1       -0.3701
     22 C         138.3160  143.9413  164.0555 C.3     1  UNL1        0.5774
     23 F         137.6816  142.6108  164.3340 F       1  UNL1       -0.1328
     24 F         137.4364  144.1090  162.8522 F       1  UNL1       -0.1328
     25 F         139.1957  143.7736  165.2589 F       1  UNL1       -0.1328
     26 C         139.1588  137.6641  163.6389 C.3     1  UNL1        0.0910
     27 N         138.6696  138.4392  164.8263 N.am    1  UNL1       -0.2890
     28 C         139.6493  138.9729  165.8290 C.2     1  UNL1        0.3008
     29 O         141.1182  138.7316  165.6442 O.2     1  UNL1       -0.2528
     30 N         139.1601  139.7480  167.0164 N.am    1  UNL1       -0.2889
     31 H         137.7056  138.5976  164.9476 H       1  UNL1        0.1510
     32 H         138.1960  139.9064  167.1377 H       1  UNL1        0.1510
     33 C         140.1398  140.2818  168.0191 C.3     1  UNL1        0.0913
     34 C         139.8401  140.1849  169.4856 C.3     1  UNL1        0.0276
     35 C         140.9554  140.2614  170.4857 C.3     1  UNL1        0.0486
     36 C         141.9191  141.4101  170.4480 C.ar    1  UNL1        0.0741
     37 C         143.2279  141.4394  169.7157 C.ar    1  UNL1        0.1378
     38 N         143.8610  142.7788  169.9511 N.ar    1  UNL1       -0.1277
     39 N         142.9434  143.5773  170.8289 N.ar    1  UNL1       -0.0675
     40 N         141.7433  142.7315  171.1360 N.ar    1  UNL1       -0.2605
     41 H         140.9751  142.9969  171.6916 H       1  UNL1        0.1903
@<TRIPOS>BOND
     1    17    18    3
     2    18    11    1
     3    11    12   ar
     4    12    13   ar
     5    13    10    1
     6    10     9    1
     7     9     1    1
     8     1     2    2
     9     1     3   am
    10     3     4    1
    11     5     4    1
    12     5     6    1
    13     6    26    1
    14    26    27    1
    15    27    28   am
    16    28    29    2
    17    28    30   am
    18    30    33    1
    19    33    34    1
    20    34    35    1
    21    35    36    1
    22    36    37   ar
    23    37    38   ar
    24    38    39   ar
    25    39    40   ar
    26     6     7    1
    27     7     8    1
    28    13    14   ar
    29    14    15   ar
    30    15    19    1
    31    19    20    2
    32    19    21    1
    33    21    22    1
    34    22    23    1
    35    22    24    1
    36    22    25    1
    37    15    16   ar
    38    16    11   ar
    39     8     3    1
    40     7     5    1
    41    40    36   ar
    42    27    31    1
    43    30    32    1
    44    40    41    1
@<TRIPOS>MOLECULE
*****
 41 44 0 0 0
SMALL
GASTEIGER

@<TRIPOS>ATOM
      1 C         139.5886  139.2370  166.1778 C.2     1  UNL1        0.4052
      2 O         138.1226  138.9206  166.1470 O.2     1  UNL1       -0.2262
      3 N         140.4536  138.8993  164.9997 N.am    1  UNL1       -0.2460
      4 C         139.9967  138.2477  163.7283 C.3     1  UNL1        0.0968
      5 C         141.1881  138.0997  162.8291 C.3     1  UNL1        0.0234
      6 C         142.5338  138.0874  162.1667 C.3     1  UNL1        0.0231
      7 C         142.3814  138.6599  163.5447 C.3     1  UNL1        0.0234
      8 C         141.9274  139.1541  164.8863 C.3     1  UNL1        0.0968
      9 O         140.1895  139.8909  167.3866 O.3     1  UNL1       -0.4295
     10 C         140.1887  141.3859  167.5088 C.3     1  UNL1        0.2367
     11 C         140.2183  143.7317  164.3078 C.ar    1  UNL1        0.0685
     12 C         139.7170  142.8863  165.4409 C.ar    1  UNL1        0.0096
     13 C         140.6901  142.2314  166.3757 C.ar    1  UNL1        0.0222
     14 C         142.1647  142.4219  166.1776 C.ar    1  UNL1        0.0058
     15 C         142.6661  143.2673  165.0445 C.ar    1  UNL1        0.0763
     16 C         141.6929  143.9222  164.1097 C.ar    1  UNL1        0.0167
     17 N         138.2720  145.0416  162.4381 N.1     1  UNL1       -0.1908
     18 C         139.2452  144.3867  163.3730 C.1     1  UNL1        0.1004
     19 C         144.1407  143.4578  164.8463 C.2     1  UNL1        0.3466
     20 O         144.9725  144.0614  165.9388 O.2     1  UNL1       -0.2447
     21 O         144.7835  143.0446  163.5555 O.3     1  UNL1       -0.3701
     22 C         144.9758  141.5897  163.2454 C.3     1  UNL1        0.5774
     23 F         145.1682  140.1347  162.9353 F       1  UNL1       -0.1328
     24 F         143.7978  141.6317  162.3177 F       1  UNL1       -0.1328
     25 F         146.1538  141.5477  164.1730 F       1  UNL1       -0.1328
     26 C         143.3989  137.7498  160.9887 C.3     1  UNL1        0.0910
     27 N         144.1360  138.8364  160.2636 N.am    1  UNL1       -0.2890
     28 C         143.3744  139.8770  159.4973 C.2     1  UNL1        0.3008
     29 O         141.8757  139.8310  159.4562 O.2     1  UNL1       -0.2528
     30 N         144.1116  140.9637  158.7722 N.am    1  UNL1       -0.2889
     31 H         145.1197  138.8666  160.2905 H       1  UNL1        0.1510
     32 H         145.0953  140.9938  158.7991 H       1  UNL1        0.1510
     33 C         143.3501  142.0043  158.0059 C.3     1  UNL1        0.0913
     34 C         143.1334  143.3644  158.6002 C.3     1  UNL1        0.0276
     35 C         142.4054  143.5059  159.9040 C.3     1  UNL1        0.0486
     36 C         140.9640  143.1035  160.0057 C.ar    1  UNL1        0.0741
     37 C         139.8220  143.7169  159.2509 C.ar    1  UNL1        0.1378
     38 N         138.5636  143.0095  159.6587 N.ar    1  UNL1       -0.1277
     39 N         138.9279  141.9590  160.6657 N.ar    1  UNL1       -0.0675
     40 N         140.4114  142.0171  160.8801 N.ar    1  UNL1       -0.2605
     41 H         140.9311  141.4430  161.4880 H       1  UNL1        0.1903
@<TRIPOS>BOND
     1    17    18    3
     2    18    11    1
     3    11    12   ar
     4    12    13   ar
     5    13    10    1
     6    10     9    1
     7     9     1    1
     8     1     2    2
     9     1     3   am
    10     3     4    1
    11     5     4    1
    12     5     6    1
    13     6    26    1
    14    26    27    1
    15    27    28   am
    16    28    29    2
    17    28    30   am
    18    30    33    1
    19    33    34    1
    20    34    35    1
    21    35    36    1
    22    36    37   ar
    23    37    38   ar
    24    38    39   ar
    25    39    40   ar
    26     6     7    1
    27     7     8    1
    28    13    14   ar
    29    14    15   ar
    30    15    19    1
    31    19    20    2
    32    19    21    1
    33    21    22    1
    34    22    23    1
    35    22    24    1
    36    22    25    1
    37    15    16   ar
    38    16    11   ar
    39     8     3    1
    40     7     5    1
    41    40    36   ar
    42    27    31    1
    43    30    32    1
    44    40    41    1
@<TRIPOS>MOLECULE
*****
 41 44 0 0 0
SMALL
GASTEIGER

@<TRIPOS>ATOM
      1 C         140.2503  137.7650  164.5047 C.2     1  UNL1        0.4052
      2 O         141.6240  137.7606  165.1072 O.2     1  UNL1       -0.2262
      3 N         140.0771  138.0052  163.0342 N.am    1  UNL1       -0.2460
      4 C         141.1777  138.2544  162.0459 C.3     1  UNL1        0.0968
      5 C         140.5537  138.4416  160.6947 C.3     1  UNL1        0.0234
      6 C         139.6607  138.5828  159.4979 C.3     1  UNL1        0.0231
      7 C         139.0676  138.3080  160.8479 C.3     1  UNL1        0.0234
      8 C         138.7730  138.0383  162.2938 C.3     1  UNL1        0.0968
      9 O         139.0499  137.5293  165.3726 O.3     1  UNL1       -0.4295
     10 C         138.2524  138.6932  165.8820 C.3     1  UNL1        0.2367
     11 C         139.9895  140.9876  168.6148 C.ar    1  UNL1        0.0685
     12 C         139.2923  139.8220  167.9783 C.ar    1  UNL1        0.0096
     13 C         138.9496  139.8589  166.5184 C.ar    1  UNL1        0.0222
     14 C         139.3041  141.0616  165.6951 C.ar    1  UNL1        0.0058
     15 C         140.0012  142.2272  166.3315 C.ar    1  UNL1        0.0763
     16 C         140.3439  142.1903  167.7914 C.ar    1  UNL1        0.0167
     17 N         140.6749  140.9137  171.5345 N.1     1  UNL1       -0.1908
     18 C         140.3322  140.9506  170.0746 C.1     1  UNL1        0.1004
     19 C         140.3557  143.4299  165.5082 C.2     1  UNL1        0.3466
     20 O         141.7130  143.5341  164.8783 O.2     1  UNL1       -0.2447
     21 O         139.3528  144.5285  165.3147 O.3     1  UNL1       -0.3701
     22 C         138.4567  144.5226  164.1118 C.3     1  UNL1        0.5774
     23 F         137.5605  144.5167  162.9089 F       1  UNL1       -0.1328
     24 F         137.3837  143.8486  164.9145 F       1  UNL1       -0.1328
     25 F         139.5297  145.1966  163.3092 F       1  UNL1       -0.1328
     26 C         139.4875  138.8229  158.0274 C.3     1  UNL1        0.0910
     27 N         139.5842  137.6775  157.0639 N.am    1  UNL1       -0.2890
     28 C         140.9195  137.2691  156.5158 C.2     1  UNL1        0.3008
     29 O         142.1580  138.0063  156.9313 O.2     1  UNL1       -0.2528
     30 N         141.0162  136.1236  155.5522 N.am    1  UNL1       -0.2889
     31 H         138.7714  137.1936  156.7911 H       1  UNL1        0.1510
     32 H         140.2033  135.6397  155.2795 H       1  UNL1        0.1510
     33 C         142.3515  135.7152  155.0042 C.3     1  UNL1        0.0913
     34 C         142.9046  134.3554  155.3123 C.3     1  UNL1        0.0276
     35 C         142.5319  133.6663  156.5914 C.3     1  UNL1        0.0486
     36 C         143.4280  132.6070  157.1613 C.ar    1  UNL1        0.0741
     37 C         144.7963  132.8250  157.7360 C.ar    1  UNL1        0.1378
     38 N         145.3271  131.4963  158.1864 N.ar    1  UNL1       -0.1277
     39 N         144.2868  130.4570  157.8900 N.ar    1  UNL1       -0.0675
     40 N         143.1132  131.1434  157.2565 N.ar    1  UNL1       -0.2605
     41 H         142.2821  130.7095  156.9559 H       1  UNL1        0.1903
@<TRIPOS>BOND
     1    17    18    3
     2    18    11    1
     3    11    12   ar
     4    12    13   ar
     5    13    10    1
     6    10     9    1
     7     9     1    1
     8     1     2    2
     9     1     3   am
    10     3     4    1
    11     5     4    1
    12     5     6    1
    13     6    26    1
    14    26    27    1
    15    27    28   am
    16    28    29    2
    17    28    30   am
    18    30    33    1
    19    33    34    1
    20    34    35    1
    21    35    36    1
    22    36    37   ar
    23    37    38   ar
    24    38    39   ar
    25    39    40   ar
    26     6     7    1
    27     7     8    1
    28    13    14   ar
    29    14    15   ar
    30    15    19    1
    31    19    20    2
    32    19    21    1
    33    21    22    1
    34    22    23    1
    35    22    24    1
    36    22    25    1
    37    15    16   ar
    38    16    11   ar
    39     8     3    1
    40     7     5    1
    41    40    36   ar
    42    27    31    1
    43    30    32    1
    44    40    41    1
@<TRIPOS>MOLECULE
*****
 41 44 0 0 0
SMALL
GASTEIGER

@<TRIPOS>ATOM
      1 C         137.7320  139.9471  160.4906 C.2     1  UNL1        0.4052
      2 O         137.6050  139.7205  159.0132 O.2     1  UNL1       -0.2262
      3 N         138.2451  141.2587  161.0068 N.am    1  UNL1       -0.2460
      4 C         138.6677  142.4305  160.1712 C.3     1  UNL1        0.0968
      5 C         139.1095  143.5248  161.0972 C.3     1  UNL1        0.0234
      6 C         139.4790  144.4129  162.2481 C.3     1  UNL1        0.0231
      7 C         138.9599  143.0293  162.5050 C.3     1  UNL1        0.0234
      8 C         138.4257  141.6288  162.4491 C.3     1  UNL1        0.0968
      9 O         137.3459  138.8621  161.4517 O.3     1  UNL1       -0.4295
     10 C         138.3834  137.9042  161.9576 C.3     1  UNL1        0.2367
     11 C         141.5626  138.7208  164.1883 C.ar    1  UNL1        0.0685
     12 C         140.7185  138.3554  163.0034 C.ar    1  UNL1        0.0096
     13 C         139.2275  138.2697  163.1426 C.ar    1  UNL1        0.0222
     14 C         138.5804  138.5495  164.4666 C.ar    1  UNL1        0.0058
     15 C         139.4245  138.9150  165.6514 C.ar    1  UNL1        0.0763
     16 C         140.9156  139.0006  165.5123 C.ar    1  UNL1        0.0167
     17 N         144.5447  138.8922  163.9100 N.1     1  UNL1       -0.1908
     18 C         143.0537  138.8065  164.0491 C.1     1  UNL1        0.1004
     19 C         138.7775  139.1948  166.9755 C.2     1  UNL1        0.3466
     20 O         137.6315  138.3481  167.4441 O.2     1  UNL1       -0.2447
     21 O         139.2766  140.3214  167.8309 O.3     1  UNL1       -0.3701
     22 C         139.7682  140.0465  169.2211 C.3     1  UNL1        0.5774
     23 F         140.2599  139.7717  170.6114 F       1  UNL1       -0.1328
     24 F         138.3868  140.2820  169.7562 F       1  UNL1       -0.1328
     25 F         141.1496  139.8111  168.6861 F       1  UNL1       -0.1328
     26 C         139.9921  145.7245  162.7643 C.3     1  UNL1        0.0910
     27 N         141.4558  145.9011  163.0401 N.am    1  UNL1       -0.2890
     28 C         142.1830  144.9070  163.8962 C.2     1  UNL1        0.3008
     29 O         141.4464  143.7362  164.4764 O.2     1  UNL1       -0.2528
     30 N         143.6469  145.0836  164.1720 N.am    1  UNL1       -0.2889
     31 H         141.9393  146.6695  162.6593 H       1  UNL1        0.1510
     32 H         144.1304  145.8520  163.7911 H       1  UNL1        0.1510
     33 C         144.3741  144.0894  165.0280 C.3     1  UNL1        0.0913
     34 C         144.7366  142.7443  164.4721 C.3     1  UNL1        0.0276
     35 C         144.9903  142.5837  163.0024 C.3     1  UNL1        0.0486
     36 C         143.9885  141.8728  162.1417 C.ar    1  UNL1        0.0741
     37 C         144.3026  140.9616  160.9922 C.ar    1  UNL1        0.1378
     38 N         143.0048  140.4739  160.4194 N.ar    1  UNL1       -0.1277
     39 N         141.8887  141.0836  161.2148 N.ar    1  UNL1       -0.0675
     40 N         142.4967  141.9481  162.2792 N.ar    1  UNL1       -0.2605
     41 H         142.0032  142.4729  162.9503 H       1  UNL1        0.1903
@<TRIPOS>BOND
     1    17    18    3
     2    18    11    1
     3    11    12   ar
     4    12    13   ar
     5    13    10    1
     6    10     9    1
     7     9     1    1
     8     1     2    2
     9     1     3   am
    10     3     4    1
    11     5     4    1
    12     5     6    1
    13     6    26    1
    14    26    27    1
    15    27    28   am
    16    28    29    2
    17    28    30   am
    18    30    33    1
    19    33    34    1
    20    34    35    1
    21    35    36    1
    22    36    37   ar
    23    37    38   ar
    24    38    39   ar
    25    39    40   ar
    26     6     7    1
    27     7     8    1
    28    13    14   ar
    29    14    15   ar
    30    15    19    1
    31    19    20    2
    32    19    21    1
    33    21    22    1
    34    22    23    1
    35    22    24    1
    36    22    25    1
    37    15    16   ar
    38    16    11   ar
    39     8     3    1
    40     7     5    1
    41    40    36   ar
    42    27    31    1
    43    30    32    1
    44    40    41    1
@<TRIPOS>MOLECULE
*****
 41 44 0 0 0
SMALL
GASTEIGER

@<TRIPOS>ATOM
      1 C         140.0906  140.4963  168.0658 C.2     1  UNL1        0.4052
      2 O         139.6584  141.3927  169.1883 O.2     1  UNL1       -0.2262
      3 N         141.2425  140.8927  167.1905 N.am    1  UNL1       -0.2460
      4 C         142.0538  142.1481  167.3158 C.3     1  UNL1        0.0968
      5 C         143.0980  142.1346  166.2390 C.3     1  UNL1        0.0234
      6 C         144.0126  141.8460  165.0856 C.3     1  UNL1        0.0231
      7 C         142.9321  140.8708  165.4482 C.3     1  UNL1        0.0234
      8 C         141.7852  140.1033  166.0363 C.3     1  UNL1        0.0968
      9 O         139.3709  139.2037  167.8186 O.3     1  UNL1       -0.4295
     10 C         138.2177  139.1587  166.8605 C.3     1  UNL1        0.2367
     11 C         138.2582  141.3834  163.5742 C.ar    1  UNL1        0.0685
     12 C         138.0634  140.9680  165.0023 C.ar    1  UNL1        0.0096
     13 C         138.4125  139.5740  165.4323 C.ar    1  UNL1        0.0222
     14 C         138.9563  138.5953  164.4341 C.ar    1  UNL1        0.0058
     15 C         139.1511  139.0107  163.0060 C.ar    1  UNL1        0.0763
     16 C         138.8020  140.4047  162.5761 C.ar    1  UNL1        0.0167
     17 N         137.5600  144.1714  162.7143 N.1     1  UNL1       -0.1908
     18 C         137.9091  142.7774  163.1443 C.1     1  UNL1        0.1004
     19 C         139.6950  138.0320  162.0078 C.2     1  UNL1        0.3466
     20 O         140.8406  137.1385  162.3809 O.2     1  UNL1       -0.2447
     21 O         139.0932  137.9468  160.6365 O.3     1  UNL1       -0.3701
     22 C         139.5642  138.8700  159.5521 C.3     1  UNL1        0.5774
     23 F         140.0351  139.7932  158.4677 F       1  UNL1       -0.1328
     24 F         138.2024  139.4962  159.4939 F       1  UNL1       -0.1328
     25 F         140.9259  138.2438  159.6103 F       1  UNL1       -0.1328
     26 C         145.1644  142.2423  164.2104 C.3     1  UNL1        0.0910
     27 N         144.9184  143.0305  162.9581 N.am    1  UNL1       -0.2890
     28 C         144.3032  142.3659  161.7623 C.2     1  UNL1        0.3008
     29 O         143.9340  140.9132  161.8188 O.2     1  UNL1       -0.2528
     30 N         144.0571  143.1542  160.5100 N.am    1  UNL1       -0.2889
     31 H         145.1606  143.9840  162.9210 H       1  UNL1        0.1510
     32 H         144.2994  144.1077  160.4730 H       1  UNL1        0.1510
     33 C         143.4419  142.4896  159.3143 C.3     1  UNL1        0.0913
     34 C         141.9531  142.5033  159.1318 C.3     1  UNL1        0.0276
     35 C         141.0519  142.6038  160.3267 C.3     1  UNL1        0.0486
     36 C         140.6626  143.9500  160.8613 C.ar    1  UNL1        0.0741
     37 C         141.1843  144.5849  162.1162 C.ar    1  UNL1        0.1378
     38 N         140.5272  145.9252  162.2655 N.ar    1  UNL1       -0.1277
     39 N         139.5994  146.1185  161.1027 N.ar    1  UNL1       -0.0675
     40 N         139.6831  144.8979  160.2350 N.ar    1  UNL1       -0.2605
     41 H         139.1829  144.7456  159.4008 H       1  UNL1        0.1903
@<TRIPOS>BOND
     1    17    18    3
     2    18    11    1
     3    11    12   ar
     4    12    13   ar
     5    13    10    1
     6    10     9    1
     7     9     1    1
     8     1     2    2
     9     1     3   am
    10     3     4    1
    11     5     4    1
    12     5     6    1
    13     6    26    1
    14    26    27    1
    15    27    28   am
    16    28    29    2
    17    28    30   am
    18    30    33    1
    19    33    34    1
    20    34    35    1
    21    35    36    1
    22    36    37   ar
    23    37    38   ar
    24    38    39   ar
    25    39    40   ar
    26     6     7    1
    27     7     8    1
    28    13    14   ar
    29    14    15   ar
    30    15    19    1
    31    19    20    2
    32    19    21    1
    33    21    22    1
    34    22    23    1
    35    22    24    1
    36    22    25    1
    37    15    16   ar
    38    16    11   ar
    39     8     3    1
    40     7     5    1
    41    40    36   ar
    42    27    31    1
    43    30    32    1
    44    40    41    1
@<TRIPOS>MOLECULE
*****
 41 44 0 0 0
SMALL
GASTEIGER

@<TRIPOS>ATOM
      1 C         139.7705  140.3987  168.3289 C.2     1  UNL1        0.4052
      2 O         139.3811  141.1285  169.5803 O.2     1  UNL1       -0.2262
      3 N         140.8680  140.9353  167.4585 N.am    1  UNL1       -0.2460
      4 C         141.6620  142.1830  167.7093 C.3     1  UNL1        0.0968
      5 C         142.6489  142.3372  166.5903 C.3     1  UNL1        0.0234
      6 C         143.5074  142.2256  165.3653 C.3     1  UNL1        0.0231
      7 C         142.4650  141.1848  165.6479 C.3     1  UNL1        0.0234
      8 C         141.3643  140.3183  166.1845 C.3     1  UNL1        0.0968
      9 O         139.0625  139.1324  167.9480 O.3     1  UNL1       -0.4295
     10 C         137.9433  139.1700  166.9499 C.3     1  UNL1        0.2367
     11 C         138.2081  141.3932  163.6731 C.ar    1  UNL1        0.0685
     12 C         137.9357  140.9844  165.0904 C.ar    1  UNL1        0.0096
     13 C         138.2158  139.5788  165.5326 C.ar    1  UNL1        0.0222
     14 C         138.7685  138.5819  164.5576 C.ar    1  UNL1        0.0058
     15 C         139.0410  138.9906  163.1403 C.ar    1  UNL1        0.0763
     16 C         138.7608  140.3963  162.6981 C.ar    1  UNL1        0.0167
     17 N         137.6478  144.2046  162.7887 N.1     1  UNL1       -0.1908
     18 C         137.9279  142.7989  163.2309 C.1     1  UNL1        0.1004
     19 C         139.5937  137.9937  162.1652 C.2     1  UNL1        0.3466
     20 O         139.0127  137.8921  160.7860 O.2     1  UNL1       -0.2447
     21 O         140.7273  137.0984  162.5694 O.3     1  UNL1       -0.3701
     22 C         141.8846  137.6566  163.3433 C.3     1  UNL1        0.5774
     23 F         143.0420  138.2149  164.1172 F       1  UNL1       -0.1328
     24 F         141.5113  136.8019  164.5180 F       1  UNL1       -0.1328
     25 F         142.2579  138.5113  162.1685 F       1  UNL1       -0.1328
     26 C         144.6049  142.7622  164.4949 C.3     1  UNL1        0.0910
     27 N         144.2980  143.7970  163.4533 N.am    1  UNL1       -0.2890
     28 C         143.2329  143.5377  162.4294 C.2     1  UNL1        0.3008
     29 O         142.4747  142.2436  162.4471 O.2     1  UNL1       -0.2528
     30 N         142.9260  144.5727  161.3879 N.am    1  UNL1       -0.2889
     31 H         144.7956  144.6464  163.4417 H       1  UNL1        0.1510
     32 H         143.4236  145.4221  161.3763 H       1  UNL1        0.1510
     33 C         141.8609  144.3134  160.3640 C.3     1  UNL1        0.0913
     34 C         142.2196  143.6800  159.0524 C.3     1  UNL1        0.0276
     35 C         141.6327  142.3521  158.6754 C.3     1  UNL1        0.0486
     36 C         142.4778  141.1143  158.7357 C.ar    1  UNL1        0.0741
     37 C         142.6484  140.1087  157.6358 C.ar    1  UNL1        0.1378
     38 N         143.5767  139.0376  158.1268 N.ar    1  UNL1       -0.1277
     39 N         143.9798  139.3812  159.5303 N.ar    1  UNL1       -0.0675
     40 N         143.3006  140.6646  159.9066 N.ar    1  UNL1       -0.2605
     41 H         143.3809  141.1301  160.7703 H       1  UNL1        0.1903
@<TRIPOS>BOND
     1    17    18    3
     2    18    11    1
     3    11    12   ar
     4    12    13   ar
     5    13    10    1
     6    10     9    1
     7     9     1    1
     8     1     2    2
     9     1     3   am
    10     3     4    1
    11     5     4    1
    12     5     6    1
    13     6    26    1
    14    26    27    1
    15    27    28   am
    16    28    29    2
    17    28    30   am
    18    30    33    1
    19    33    34    1
    20    34    35    1
    21    35    36    1
    22    36    37   ar
    23    37    38   ar
    24    38    39   ar
    25    39    40   ar
    26     6     7    1
    27     7     8    1
    28    13    14   ar
    29    14    15   ar
    30    15    19    1
    31    19    20    2
    32    19    21    1
    33    21    22    1
    34    22    23    1
    35    22    24    1
    36    22    25    1
    37    15    16   ar
    38    16    11   ar
    39     8     3    1
    40     7     5    1
    41    40    36   ar
    42    27    31    1
    43    30    32    1
    44    40    41    1
@<TRIPOS>MOLECULE
*****
 41 44 0 0 0
SMALL
GASTEIGER

@<TRIPOS>ATOM
      1 C         139.9927  137.6484  164.4718 C.2     1  UNL1        0.4052
      2 O         141.3455  137.4546  165.0901 O.2     1  UNL1       -0.2262
      3 N         139.8742  137.9605  163.0094 N.am    1  UNL1       -0.2460
      4 C         141.0130  138.1088  162.0444 C.3     1  UNL1        0.0968
      5 C         140.4387  138.4192  160.6939 C.3     1  UNL1        0.0234
      6 C         139.5893  138.7112  159.4926 C.3     1  UNL1        0.0231
      7 C         138.9450  138.4627  160.8242 C.3     1  UNL1        0.0234
      8 C         138.5962  138.1792  162.2552 C.3     1  UNL1        0.0968
      9 O         138.7583  137.5299  165.3158 O.3     1  UNL1       -0.4295
     10 C         138.1623  138.7524  165.9485 C.3     1  UNL1        0.2367
     11 C         139.8846  142.3210  165.7268 C.ar    1  UNL1        0.0685
     12 C         139.0127  141.1451  165.3993 C.ar    1  UNL1        0.0096
     13 C         139.0342  139.9282  166.2761 C.ar    1  UNL1        0.0222
     14 C         139.9274  139.8872  167.4804 C.ar    1  UNL1        0.0058
     15 C         140.7993  141.0630  167.8079 C.ar    1  UNL1        0.0763
     16 C         140.7778  142.2799  166.9311 C.ar    1  UNL1        0.0167
     17 N         139.8417  144.7547  163.9733 N.1     1  UNL1       -0.1908
     18 C         139.8631  143.5378  164.8500 C.1     1  UNL1        0.1004
     19 C         141.6926  141.0220  169.0122 C.2     1  UNL1        0.3466
     20 O         142.9959  140.2817  168.9544 O.2     1  UNL1       -0.2447
     21 O         141.2825  141.7213  170.2743 O.3     1  UNL1       -0.3701
     22 C         140.7359  143.1168  170.2149 C.3     1  UNL1        0.5774
     23 F         140.1892  144.5125  170.1554 F       1  UNL1       -0.1328
     24 F         142.1244  143.6528  170.0284 F       1  UNL1       -0.1328
     25 F         139.3474  142.5809  170.4013 F       1  UNL1       -0.1328
     26 C         139.4708  139.0234  158.0302 C.3     1  UNL1        0.0910
     27 N         139.2894  137.9128  157.0385 N.am    1  UNL1       -0.2890
     28 C         140.4846  137.1761  156.5105 C.2     1  UNL1        0.3008
     29 O         141.8612  137.5501  156.9741 O.2     1  UNL1       -0.2528
     30 N         140.3031  136.0654  155.5187 N.am    1  UNL1       -0.2889
     31 H         138.3859  137.6673  156.7342 H       1  UNL1        0.1510
     32 H         139.3995  135.8199  155.2144 H       1  UNL1        0.1510
     33 C         141.4982  135.3288  154.9906 C.3     1  UNL1        0.0913
     34 C         141.9962  134.1029  155.6972 C.3     1  UNL1        0.0276
     35 C         143.4509  133.9730  156.0389 C.3     1  UNL1        0.0486
     36 C         143.9385  132.7765  156.8008 C.ar    1  UNL1        0.0741
     37 C         143.2146  131.4711  156.9497 C.ar    1  UNL1        0.1378
     38 N         144.0643  130.5630  157.7886 N.ar    1  UNL1       -0.1277
     39 N         145.3133  131.3071  158.1580 N.ar    1  UNL1       -0.0675
     40 N         145.2355  132.6751  157.5476 N.ar    1  UNL1       -0.2605
     41 H         145.9162  133.3823  157.6236 H       1  UNL1        0.1903
@<TRIPOS>BOND
     1    17    18    3
     2    18    11    1
     3    11    12   ar
     4    12    13   ar
     5    13    10    1
     6    10     9    1
     7     9     1    1
     8     1     2    2
     9     1     3   am
    10     3     4    1
    11     5     4    1
    12     5     6    1
    13     6    26    1
    14    26    27    1
    15    27    28   am
    16    28    29    2
    17    28    30   am
    18    30    33    1
    19    33    34    1
    20    34    35    1
    21    35    36    1
    22    36    37   ar
    23    37    38   ar
    24    38    39   ar
    25    39    40   ar
    26     6     7    1
    27     7     8    1
    28    13    14   ar
    29    14    15   ar
    30    15    19    1
    31    19    20    2
    32    19    21    1
    33    21    22    1
    34    22    23    1
    35    22    24    1
    36    22    25    1
    37    15    16   ar
    38    16    11   ar
    39     8     3    1
    40     7     5    1
    41    40    36   ar
    42    27    31    1
    43    30    32    1
    44    40    41    1
@<TRIPOS>MOLECULE
*****
 41 44 0 0 0
SMALL
GASTEIGER

@<TRIPOS>ATOM
      1 C         139.7380  137.5470  163.1647 C.2     1  UNL1        0.4052
      2 O         141.0256  136.7809  163.2371 O.2     1  UNL1       -0.2262
      3 N         139.3927  138.3180  161.9252 N.am    1  UNL1       -0.2460
      4 C         140.2313  138.4156  160.6854 C.3     1  UNL1        0.0968
      5 C         139.5051  139.2847  159.7018 C.3     1  UNL1        0.0234
      6 C         138.5624  140.1721  158.9444 C.3     1  UNL1        0.0231
      7 C         138.2177  139.7242  160.3338 C.3     1  UNL1        0.0234
      8 C         138.1483  139.1267  161.7079 C.3     1  UNL1        0.0968
      9 O         138.7957  137.5421  164.3318 O.3     1  UNL1       -0.4295
     10 C         138.2725  138.8371  164.8787 C.3     1  UNL1        0.2367
     11 C         140.9880  141.4764  166.0662 C.ar    1  UNL1        0.0685
     12 C         140.1241  140.6356  165.1736 C.ar    1  UNL1        0.0096
     13 C         139.1364  139.6779  165.7714 C.ar    1  UNL1        0.0222
     14 C         139.0127  139.5609  167.2616 C.ar    1  UNL1        0.0058
     15 C         139.8766  140.4016  168.1542 C.ar    1  UNL1        0.0763
     16 C         140.8643  141.3594  167.5565 C.ar    1  UNL1        0.0167
     17 N         142.9633  143.3919  164.8708 N.1     1  UNL1       -0.1908
     18 C         141.9757  142.4341  165.4685 C.1     1  UNL1        0.1004
     19 C         139.7529  140.2847  169.6445 C.2     1  UNL1        0.3466
     20 O         138.6501  141.0029  170.3642 O.2     1  UNL1       -0.2447
     21 O         140.7320  139.4495  170.4151 O.3     1  UNL1       -0.3701
     22 C         142.1759  139.8514  170.4760 C.3     1  UNL1        0.5774
     23 F         143.6198  140.2532  170.5370 F       1  UNL1       -0.1328
     24 F         141.7858  141.1582  171.1004 F       1  UNL1       -0.1328
     25 F         142.5660  138.5445  169.8517 F       1  UNL1       -0.1328
     26 C         138.2171  140.9431  157.7049 C.3     1  UNL1        0.0910
     27 N         139.0338  142.1389  157.3136 N.am    1  UNL1       -0.2890
     28 C         139.2057  143.2770  158.2753 C.2     1  UNL1        0.3008
     29 O         138.5610  143.2194  159.6284 O.2     1  UNL1       -0.2528
     30 N         140.0224  144.4728  157.8839 N.am    1  UNL1       -0.2889
     31 H         139.4570  142.1767  156.4255 H       1  UNL1        0.1510
     32 H         140.4456  144.5106  156.9958 H       1  UNL1        0.1510
     33 C         140.1943  145.6110  158.8457 C.3     1  UNL1        0.0913
     34 C         140.6229  145.3415  160.2577 C.3     1  UNL1        0.0276
     35 C         139.9319  146.0320  161.3960 C.3     1  UNL1        0.0486
     36 C         139.2363  145.2248  162.4517 C.ar    1  UNL1        0.0741
     37 C         139.7833  144.8879  163.8072 C.ar    1  UNL1        0.1378
     38 N         138.7567  144.0676  164.5306 N.ar    1  UNL1       -0.1277
     39 N         137.5752  143.8975  163.6221 N.ar    1  UNL1       -0.0675
     40 N         137.8716  144.6127  162.3373 N.ar    1  UNL1       -0.2605
     41 H         137.2753  144.6702  161.5561 H       1  UNL1        0.1903
@<TRIPOS>BOND
     1    17    18    3
     2    18    11    1
     3    11    12   ar
     4    12    13   ar
     5    13    10    1
     6    10     9    1
     7     9     1    1
     8     1     2    2
     9     1     3   am
    10     3     4    1
    11     5     4    1
    12     5     6    1
    13     6    26    1
    14    26    27    1
    15    27    28   am
    16    28    29    2
    17    28    30   am
    18    30    33    1
    19    33    34    1
    20    34    35    1
    21    35    36    1
    22    36    37   ar
    23    37    38   ar
    24    38    39   ar
    25    39    40   ar
    26     6     7    1
    27     7     8    1
    28    13    14   ar
    29    14    15   ar
    30    15    19    1
    31    19    20    2
    32    19    21    1
    33    21    22    1
    34    22    23    1
    35    22    24    1
    36    22    25    1
    37    15    16   ar
    38    16    11   ar
    39     8     3    1
    40     7     5    1
    41    40    36   ar
    42    27    31    1
    43    30    32    1
    44    40    41    1
@<TRIPOS>MOLECULE
*****
 41 44 0 0 0
SMALL
GASTEIGER

@<TRIPOS>ATOM
      1 C         138.7809  140.3506  164.9963 C.2     1  UNL1        0.4052
      2 O         138.4329  139.5600  166.2227 O.2     1  UNL1       -0.2262
      3 N         139.6840  139.7599  163.9544 N.am    1  UNL1       -0.2460
      4 C         140.3116  138.3983  164.0010 C.3     1  UNL1        0.0968
      5 C         141.1336  138.2240  162.7584 C.3     1  UNL1        0.0234
      6 C         141.8559  138.3394  161.4489 C.3     1  UNL1        0.0231
      7 C         141.0140  139.4779  161.9439 C.3     1  UNL1        0.0234
      8 C         140.1182  140.4271  162.6831 C.3     1  UNL1        0.0968
      9 O         138.2258  141.7318  164.8118 O.3     1  UNL1       -0.4295
     10 C         139.0178  142.9244  165.2595 C.3     1  UNL1        0.2367
     11 C         142.4277  142.2271  167.1665 C.ar    1  UNL1        0.0685
     12 C         140.9593  142.3622  166.8919 C.ar    1  UNL1        0.0096
     13 C         140.4864  142.7894  165.5340 C.ar    1  UNL1        0.0222
     14 C         141.4818  143.0816  164.4507 C.ar    1  UNL1        0.0058
     15 C         142.9503  142.9466  164.7253 C.ar    1  UNL1        0.0763
     16 C         143.4232  142.5193  166.0832 C.ar    1  UNL1        0.0167
     17 N         143.3736  141.3727  169.8822 N.1     1  UNL1       -0.1908
     18 C         142.9007  141.7999  168.5243 C.1     1  UNL1        0.1004
     19 C         143.9459  143.2388  163.6420 C.2     1  UNL1        0.3466
     20 O         143.7986  144.4719  162.8008 O.2     1  UNL1       -0.2447
     21 O         145.0886  142.2978  163.3999 O.3     1  UNL1       -0.3701
     22 C         144.8226  140.8418  163.1566 C.3     1  UNL1        0.5774
     23 F         144.5566  139.3857  162.9133 F       1  UNL1       -0.1328
     24 F         143.9812  141.1944  161.9660 F       1  UNL1       -0.1328
     25 F         145.6640  140.4891  164.3472 F       1  UNL1       -0.1328
     26 C         142.7591  137.7487  160.4071 C.3     1  UNL1        0.0910
     27 N         143.7964  138.6038  159.7417 N.am    1  UNL1       -0.2890
     28 C         143.3831  139.6439  158.7431 C.2     1  UNL1        0.3008
     29 O         141.9324  139.8289  158.4097 O.2     1  UNL1       -0.2528
     30 N         144.4206  140.4989  158.0777 N.am    1  UNL1       -0.2889
     31 H         144.7486  138.4823  159.9605 H       1  UNL1        0.1510
     32 H         145.3727  140.3775  158.2965 H       1  UNL1        0.1510
     33 C         144.0072  141.5391  157.0791 C.3     1  UNL1        0.0913
     34 C         143.3978  142.8274  157.5466 C.3     1  UNL1        0.0276
     35 C         143.2924  143.1181  159.0144 C.3     1  UNL1        0.0486
     36 C         142.0771  143.8102  159.5566 C.ar    1  UNL1        0.0741
     37 C         140.6519  143.4184  159.3011 C.ar    1  UNL1        0.1378
     38 N         139.7675  144.3817  160.0361 N.ar    1  UNL1       -0.1277
     39 N         140.6462  145.3687  160.7458 N.ar    1  UNL1       -0.0675
     40 N         142.0736  145.0155  160.4495 N.ar    1  UNL1       -0.2605
     41 H         142.8686  145.4913  160.7825 H       1  UNL1        0.1903
@<TRIPOS>BOND
     1    17    18    3
     2    18    11    1
     3    11    12   ar
     4    12    13   ar
     5    13    10    1
     6    10     9    1
     7     9     1    1
     8     1     2    2
     9     1     3   am
    10     3     4    1
    11     5     4    1
    12     5     6    1
    13     6    26    1
    14    26    27    1
    15    27    28   am
    16    28    29    2
    17    28    30   am
    18    30    33    1
    19    33    34    1
    20    34    35    1
    21    35    36    1
    22    36    37   ar
    23    37    38   ar
    24    38    39   ar
    25    39    40   ar
    26     6     7    1
    27     7     8    1
    28    13    14   ar
    29    14    15   ar
    30    15    19    1
    31    19    20    2
    32    19    21    1
    33    21    22    1
    34    22    23    1
    35    22    24    1
    36    22    25    1
    37    15    16   ar
    38    16    11   ar
    39     8     3    1
    40     7     5    1
    41    40    36   ar
    42    27    31    1
    43    30    32    1
    44    40    41    1
