@<TRIPOS>MOLECULE
*****
 34 38 0 0 0
SMALL
GASTEIGER

@<TRIPOS>ATOM
      1 N         139.8702  138.3077  161.8780 N.3     1  UNL1       -0.2703
      2 C         139.1011  139.0877  162.9027 C.3     1  UNL1        0.0727
      3 C         139.7111  139.3697  164.2437 C.3     1  UNL1        0.0260
      4 C         141.0902  138.8715  164.5600 C.3     1  UNL1        0.0737
      5 C         141.8592  138.0914  163.5353 C.3     1  UNL1        0.0260
      6 C         141.2492  137.8095  162.1943 C.3     1  UNL1        0.0727
      7 C         142.4521  138.4402  165.0174 C.3     1  UNL1        0.0306
      8 C         142.6490  138.9364  166.4193 C.3     1  UNL1        0.0987
      9 N         141.4088  139.6744  166.8282 N.am    1  UNL1       -0.2573
     10 C         140.4454  139.6343  165.6792 C.2     1  UNL1        0.2286
     11 O         139.0774  140.2490  165.6537 O.2     1  UNL1       -0.2746
     12 C         141.1733  140.3362  168.1535 C.ar    1  UNL1        0.0713
     13 C         139.9526  139.9953  168.9557 C.ar    1  UNL1        0.0213
     14 C         139.7171  140.6572  170.2811 C.ar    1  UNL1        0.0621
     15 C         140.7023  141.6600  170.8041 C.ar    1  UNL1        0.2611
     16 O         140.4668  142.3219  172.1295 O.2     1  UNL1       -0.2670
     17 N         141.9231  142.0010  170.0019 N.ar    1  UNL1       -0.2910
     18 C         142.9083  143.0039  170.5250 C.3     1  UNL1        0.1336
     19 C         142.1585  141.3391  168.6766 C.ar    1  UNL1        0.0933
     20 C         139.2602  138.0257  160.5369 C.3     1  UNL1        0.1063
     21 C         139.4238  139.0097  159.4167 C.3     1  UNL1        0.1483
     22 O         139.3969  138.5372  157.9933 O.3     1  UNL1       -0.3786
     23 H         139.5157  139.2945  157.3989 H       1  UNL1        0.2108
     24 C         142.1847  140.1821  159.4713 C.3     1  UNL1        0.0306
     25 C         140.9947  141.0526  159.7472 C.ar    1  UNL1       -0.0238
     26 C         139.6142  140.4664  159.7199 C.ar    1  UNL1        0.0015
     27 C         138.4242  141.3369  159.9957 C.ar    1  UNL1       -0.0020
     28 C         138.6146  142.7936  160.2989 C.ar    1  UNL1        0.0060
     29 C         139.9951  143.3797  160.3262 C.ar    1  UNL1        0.0748
     30 C         141.1851  142.5092  160.0503 C.ar    1  UNL1        0.0233
     31 C         142.4154  143.3619  160.1465 C.3     1  UNL1        0.2352
     32 O         141.9858  144.7594  160.4818 O.3     1  UNL1       -0.4404
     33 C         140.4899  144.7704  160.5929 C.2     1  UNL1        0.3413
     34 O         139.6384  145.9627  160.9142 O.2     1  UNL1       -0.2449
@<TRIPOS>BOND
     1    24    25    1
     2    25    26   ar
     3    26    21    1
     4    21    22    1
     5    21    20    1
     6    20     1    1
     7     1     2    1
     8     2     3    1
     9     3     4    1
    10     4     5    1
    11     5     6    1
    12     4     7    1
    13     7     8    1
    14     8     9    1
    15     9    12    1
    16    12    13   ar
    17    13    14   ar
    18    14    15   ar
    19    15    16    2
    20    15    17   ar
    21    17    18    1
    22    17    19   ar
    23     9    10   am
    24    10    11    2
    25    26    27   ar
    26    27    28   ar
    27    28    29   ar
    28    29    30   ar
    29    30    31    1
    30    31    32    1
    31    32    33    1
    32    33    34    2
    33    30    25   ar
    34     6     1    1
    35    19    12   ar
    36    33    29    1
    37    10     4    1
    38    22    23    1
@<TRIPOS>MOLECULE
*****
 34 38 0 0 0
SMALL
GASTEIGER

@<TRIPOS>ATOM
      1 N         139.8882  137.8298  164.0963 N.3     1  UNL1       -0.2703
      2 C         139.4411  137.8928  162.6659 C.3     1  UNL1        0.0727
      3 C         140.4468  138.1122  161.5748 C.3     1  UNL1        0.0260
      4 C         141.8995  138.2687  161.9141 C.3     1  UNL1        0.0737
      5 C         142.3466  138.2057  163.3445 C.3     1  UNL1        0.0260
      6 C         141.3410  137.9863  164.4356 C.3     1  UNL1        0.0727
      7 C         143.3780  138.4414  162.0993 C.3     1  UNL1        0.0306
      8 C         143.9955  138.6334  160.7458 C.3     1  UNL1        0.0987
      9 N         142.8986  138.5794  159.7240 N.am    1  UNL1       -0.2573
     10 C         141.6032  138.3540  160.4460 C.2     1  UNL1        0.2286
     11 O         140.2493  138.2349  159.8115 O.2     1  UNL1       -0.2746
     12 C         143.0674  138.7252  158.2408 C.ar    1  UNL1        0.0713
     13 C         143.5214  140.0327  157.6625 C.ar    1  UNL1        0.0213
     14 C         143.6902  140.1785  156.1792 C.ar    1  UNL1        0.0621
     15 C         143.4050  139.0168  155.2741 C.ar    1  UNL1        0.2611
     16 O         143.5739  139.1626  153.7908 O.2     1  UNL1       -0.2670
     17 N         142.9510  137.7092  155.8524 N.ar    1  UNL1       -0.2910
     18 C         142.6659  136.5476  154.9473 C.3     1  UNL1        0.1336
     19 C         142.7822  137.5635  157.3357 C.ar    1  UNL1        0.0933
     20 C         138.8826  137.6104  165.1875 C.3     1  UNL1        0.1063
     21 C         138.1659  138.7805  165.7932 C.3     1  UNL1        0.1483
     22 O         137.3174  138.5895  167.0154 O.3     1  UNL1       -0.3786
     23 H         136.9285  139.4393  167.2751 H       1  UNL1        0.2108
     24 C         140.0789  140.7761  166.9586 C.3     1  UNL1        0.0306
     25 C         139.2541  141.1395  165.7596 C.ar    1  UNL1       -0.0238
     26 C         138.2976  140.1417  165.1769 C.ar    1  UNL1        0.0015
     27 C         137.4727  140.5051  163.9779 C.ar    1  UNL1       -0.0020
     28 C         137.6044  141.8662  163.3616 C.ar    1  UNL1        0.0060
     29 C         138.5609  142.8640  163.9442 C.ar    1  UNL1        0.0748
     30 C         139.3858  142.5006  165.1432 C.ar    1  UNL1        0.0233
     31 C         140.2382  143.6836  165.4952 C.3     1  UNL1        0.2352
     32 O         139.9402  144.7781  164.5138 O.3     1  UNL1       -0.4404
     33 C         138.9036  144.2716  163.5553 C.2     1  UNL1        0.3413
     34 O         138.3133  145.0380  162.4089 O.2     1  UNL1       -0.2449
@<TRIPOS>BOND
     1    24    25    1
     2    25    26   ar
     3    26    21    1
     4    21    22    1
     5    21    20    1
     6    20     1    1
     7     1     2    1
     8     2     3    1
     9     3     4    1
    10     4     5    1
    11     5     6    1
    12     4     7    1
    13     7     8    1
    14     8     9    1
    15     9    12    1
    16    12    13   ar
    17    13    14   ar
    18    14    15   ar
    19    15    16    2
    20    15    17   ar
    21    17    18    1
    22    17    19   ar
    23     9    10   am
    24    10    11    2
    25    26    27   ar
    26    27    28   ar
    27    28    29   ar
    28    29    30   ar
    29    30    31    1
    30    31    32    1
    31    32    33    1
    32    33    34    2
    33    30    25   ar
    34     6     1    1
    35    19    12   ar
    36    33    29    1
    37    10     4    1
    38    22    23    1
@<TRIPOS>MOLECULE
*****
 34 38 0 0 0
SMALL
GASTEIGER

@<TRIPOS>ATOM
      1 N         143.6781  138.9924  162.1490 N.3     1  UNL1       -0.2703
      2 C         142.8658  138.5649  163.3353 C.3     1  UNL1        0.0727
      3 C         142.7733  139.4534  164.5403 C.3     1  UNL1        0.0260
      4 C         143.4930  140.7693  164.5590 C.3     1  UNL1        0.0737
      5 C         144.3053  141.1967  163.3727 C.3     1  UNL1        0.0260
      6 C         144.3979  140.3083  162.1677 C.3     1  UNL1        0.0727
      7 C         144.1543  142.1058  164.7219 C.3     1  UNL1        0.0306
      8 C         143.7929  142.6397  166.0763 C.3     1  UNL1        0.0987
      9 N         142.9083  141.6332  166.7505 N.am    1  UNL1       -0.2573
     10 C         142.7230  140.4772  165.8128 C.2     1  UNL1        0.2286
     11 O         141.9104  139.2454  166.0815 O.2     1  UNL1       -0.2746
     12 C         142.3135  141.7603  168.1216 C.ar    1  UNL1        0.0713
     13 C         143.0598  142.4912  169.1980 C.ar    1  UNL1        0.0213
     14 C         142.4650  142.6183  170.5692 C.ar    1  UNL1        0.0621
     15 C         141.1239  142.0145  170.8639 C.ar    1  UNL1        0.2611
     16 O         140.5291  142.1416  172.2350 O.2     1  UNL1       -0.2670
     17 N         140.3776  141.2835  169.7874 N.ar    1  UNL1       -0.2910
     18 C         139.0365  140.6797  170.0821 C.3     1  UNL1        0.1336
     19 C         140.9724  141.1565  168.4163 C.ar    1  UNL1        0.0933
     20 C         143.7707  138.1039  160.9439 C.3     1  UNL1        0.1063
     21 C         142.8901  138.3568  159.7562 C.3     1  UNL1        0.1483
     22 O         142.7970  137.3364  158.6607 O.3     1  UNL1       -0.3786
     23 H         142.1897  137.6537  157.9741 H       1  UNL1        0.2108
     24 C         140.0854  138.4659  160.8156 C.3     1  UNL1        0.0306
     25 C         140.7002  139.6847  160.1937 C.ar    1  UNL1       -0.0238
     26 C         142.1025  139.6302  159.6641 C.ar    1  UNL1        0.0015
     27 C         142.7172  140.8489  159.0422 C.ar    1  UNL1       -0.0020
     28 C         141.9297  142.1222  158.9500 C.ar    1  UNL1        0.0060
     29 C         140.5274  142.1767  159.4797 C.ar    1  UNL1        0.0748
     30 C         139.9127  140.9580  160.1015 C.ar    1  UNL1        0.0233
     31 C         138.5203  141.3105  160.5339 C.3     1  UNL1        0.2352
     32 O         138.2745  142.7471  160.1793 O.3     1  UNL1       -0.4404
     33 C         139.5150  143.2824  159.5278 C.2     1  UNL1        0.3413
     34 O         139.7090  144.6784  159.0144 O.2     1  UNL1       -0.2449
@<TRIPOS>BOND
     1    24    25    1
     2    25    26   ar
     3    26    21    1
     4    21    22    1
     5    21    20    1
     6    20     1    1
     7     1     2    1
     8     2     3    1
     9     3     4    1
    10     4     5    1
    11     5     6    1
    12     4     7    1
    13     7     8    1
    14     8     9    1
    15     9    12    1
    16    12    13   ar
    17    13    14   ar
    18    14    15   ar
    19    15    16    2
    20    15    17   ar
    21    17    18    1
    22    17    19   ar
    23     9    10   am
    24    10    11    2
    25    26    27   ar
    26    27    28   ar
    27    28    29   ar
    28    29    30   ar
    29    30    31    1
    30    31    32    1
    31    32    33    1
    32    33    34    2
    33    30    25   ar
    34     6     1    1
    35    19    12   ar
    36    33    29    1
    37    10     4    1
    38    22    23    1
@<TRIPOS>MOLECULE
*****
 34 38 0 0 0
SMALL
GASTEIGER

@<TRIPOS>ATOM
      1 N         139.7802  138.3598  161.8569 N.3     1  UNL1       -0.2703
      2 C         139.0285  139.1584  162.8801 C.3     1  UNL1        0.0727
      3 C         139.6400  139.4200  164.2246 C.3     1  UNL1        0.0260
      4 C         141.0032  138.8830  164.5457 C.3     1  UNL1        0.0737
      5 C         141.7550  138.0844  163.5225 C.3     1  UNL1        0.0260
      6 C         141.1434  137.8228  162.1781 C.3     1  UNL1        0.0727
      7 C         142.3506  138.4129  165.0081 C.3     1  UNL1        0.0306
      8 C         142.5549  138.9001  166.4121 C.3     1  UNL1        0.0987
      9 N         141.3337  139.6712  166.8174 N.am    1  UNL1       -0.2573
     10 C         140.3748  139.6607  165.6640 C.2     1  UNL1        0.2286
     11 O         139.0246  140.3132  165.6340 O.2     1  UNL1       -0.2746
     12 C         141.1108  140.3361  168.1433 C.ar    1  UNL1        0.0713
     13 C         139.8865  140.0134  168.9477 C.ar    1  UNL1        0.0213
     14 C         139.6635  140.6784  170.2736 C.ar    1  UNL1        0.0621
     15 C         140.6648  141.6660  170.7952 C.ar    1  UNL1        0.2611
     16 O         140.4418  142.3310  172.1212 O.2     1  UNL1       -0.2670
     17 N         141.8891  141.9888  169.9908 N.ar    1  UNL1       -0.2910
     18 C         142.8903  142.9764  170.5124 C.3     1  UNL1        0.1336
     19 C         142.1120  141.3238  168.6649 C.ar    1  UNL1        0.0933
     20 C         139.1686  138.0981  160.5124 C.3     1  UNL1        0.1063
     21 C         139.2862  139.1223  159.4228 C.3     1  UNL1        0.1483
     22 O         138.0595  139.8179  158.9118 O.3     1  UNL1       -0.3786
     23 H         138.3096  140.4441  158.2145 H       1  UNL1        0.2108
     24 C         140.7878  141.5322  160.3914 C.3     1  UNL1        0.0306
     25 C         141.3814  140.6558  159.3285 C.ar    1  UNL1       -0.0238
     26 C         140.6306  139.4509  158.8442 C.ar    1  UNL1        0.0015
     27 C         141.2242  138.5746  157.7814 C.ar    1  UNL1       -0.0020
     28 C         142.5685  138.9031  157.2028 C.ar    1  UNL1        0.0060
     29 C         143.3193  140.1080  157.6871 C.ar    1  UNL1        0.0748
     30 C         142.7257  140.9844  158.7499 C.ar    1  UNL1        0.0233
     31 C         143.6927  142.0972  159.0266 C.3     1  UNL1        0.2352
     32 O         144.8839  141.9087  158.1347 O.3     1  UNL1       -0.4404
     33 C         144.6531  140.6793  157.3069 C.2     1  UNL1        0.3413
     34 O         145.5914  140.1194  156.2792 O.2     1  UNL1       -0.2449
@<TRIPOS>BOND
     1    24    25    1
     2    25    26   ar
     3    26    21    1
     4    21    22    1
     5    21    20    1
     6    20     1    1
     7     1     2    1
     8     2     3    1
     9     3     4    1
    10     4     5    1
    11     5     6    1
    12     4     7    1
    13     7     8    1
    14     8     9    1
    15     9    12    1
    16    12    13   ar
    17    13    14   ar
    18    14    15   ar
    19    15    16    2
    20    15    17   ar
    21    17    18    1
    22    17    19   ar
    23     9    10   am
    24    10    11    2
    25    26    27   ar
    26    27    28   ar
    27    28    29   ar
    28    29    30   ar
    29    30    31    1
    30    31    32    1
    31    32    33    1
    32    33    34    2
    33    30    25   ar
    34     6     1    1
    35    19    12   ar
    36    33    29    1
    37    10     4    1
    38    22    23    1
@<TRIPOS>MOLECULE
*****
 34 38 0 0 0
SMALL
GASTEIGER

@<TRIPOS>ATOM
      1 N         142.0312  138.0107  161.9168 N.3     1  UNL1       -0.2703
      2 C         142.7500  138.7045  163.0357 C.3     1  UNL1        0.0727
      3 C         142.0082  139.0817  164.2836 C.3     1  UNL1        0.0260
      4 C         140.5476  138.7652  164.4126 C.3     1  UNL1        0.0737
      5 C         139.8289  138.0714  163.2937 C.3     1  UNL1        0.0260
      6 C         140.5707  137.6942  162.0458 C.3     1  UNL1        0.0727
      7 C         139.0937  138.5150  164.6838 C.3     1  UNL1        0.0306
      8 C         138.7770  139.0541  166.0473 C.3     1  UNL1        0.0987
      9 N         140.0352  139.6374  166.6189 N.am    1  UNL1       -0.2573
     10 C         141.1295  139.4589  165.6086 C.2     1  UNL1        0.2286
     11 O         142.5553  139.8970  165.7665 O.2     1  UNL1       -0.2746
     12 C         140.1746  140.2855  167.9644 C.ar    1  UNL1        0.0713
     13 C         139.1493  140.0311  169.0292 C.ar    1  UNL1        0.0213
     14 C         139.2887  140.6792  170.3748 C.ar    1  UNL1        0.0621
     15 C         140.4535  141.5816  170.6556 C.ar    1  UNL1        0.2611
     16 O         140.5930  142.2297  172.0012 O.2     1  UNL1       -0.2670
     17 N         141.4790  141.8360  169.5907 N.ar    1  UNL1       -0.2910
     18 C         142.6438  142.7385  169.8714 C.3     1  UNL1        0.1336
     19 C         141.3394  141.1879  168.2451 C.ar    1  UNL1        0.0933
     20 C         142.7730  137.6335  160.6687 C.3     1  UNL1        0.1063
     21 C         142.7602  138.5511  159.4823 C.3     1  UNL1        0.1483
     22 O         143.2506  138.0630  158.1514 O.3     1  UNL1       -0.3786
     23 H         143.1746  138.7756  157.4977 H       1  UNL1        0.2108
     24 C         139.9099  139.2005  158.8080 C.3     1  UNL1        0.0306
     25 C         140.8318  140.2814  159.2895 C.ar    1  UNL1       -0.0238
     26 C         142.2568  139.9567  159.6266 C.ar    1  UNL1        0.0015
     27 C         143.1787  141.0377  160.1081 C.ar    1  UNL1       -0.0020
     28 C         142.6754  142.4433  160.2525 C.ar    1  UNL1        0.0060
     29 C         141.2503  142.7680  159.9154 C.ar    1  UNL1        0.0748
     30 C         140.3285  141.6871  159.4339 C.ar    1  UNL1        0.0233
     31 C         138.9848  142.3032  159.1793 C.3     1  UNL1        0.2352
     32 O         139.0761  143.7649  159.5034 O.3     1  UNL1       -0.4404
     33 C         140.4763  144.0521  159.9584 C.2     1  UNL1        0.3413
     34 O         141.0090  145.3889  160.3819 O.2     1  UNL1       -0.2449
@<TRIPOS>BOND
     1    24    25    1
     2    25    26   ar
     3    26    21    1
     4    21    22    1
     5    21    20    1
     6    20     1    1
     7     1     2    1
     8     2     3    1
     9     3     4    1
    10     4     5    1
    11     5     6    1
    12     4     7    1
    13     7     8    1
    14     8     9    1
    15     9    12    1
    16    12    13   ar
    17    13    14   ar
    18    14    15   ar
    19    15    16    2
    20    15    17   ar
    21    17    18    1
    22    17    19   ar
    23     9    10   am
    24    10    11    2
    25    26    27   ar
    26    27    28   ar
    27    28    29   ar
    28    29    30   ar
    29    30    31    1
    30    31    32    1
    31    32    33    1
    32    33    34    2
    33    30    25   ar
    34     6     1    1
    35    19    12   ar
    36    33    29    1
    37    10     4    1
    38    22    23    1
@<TRIPOS>MOLECULE
*****
 34 38 0 0 0
SMALL
GASTEIGER

@<TRIPOS>ATOM
      1 N         138.5861  139.0896  164.4873 N.3     1  UNL1       -0.2703
      2 C         138.0158  140.3227  163.8517 C.3     1  UNL1        0.0727
      3 C         138.0979  140.5066  162.3653 C.3     1  UNL1        0.0260
      4 C         138.7501  139.4574  161.5146 C.3     1  UNL1        0.0737
      5 C         139.3204  138.2243  162.1503 C.3     1  UNL1        0.0260
      6 C         139.2384  138.0404  163.6366 C.3     1  UNL1        0.0727
      7 C         139.3694  138.4995  160.5404 C.3     1  UNL1        0.0306
      8 C         139.2293  139.0817  159.1650 C.3     1  UNL1        0.0987
      9 N         138.5234  140.3994  159.2892 N.am    1  UNL1       -0.2573
     10 C         138.2273  140.6317  160.7412 C.2     1  UNL1        0.2286
     11 O         137.5307  141.8280  161.3187 O.2     1  UNL1       -0.2746
     12 C         138.1749  141.3227  158.1597 C.ar    1  UNL1        0.0713
     13 C         139.0025  142.5487  157.9105 C.ar    1  UNL1        0.0213
     14 C         138.6540  143.4721  156.7810 C.ar    1  UNL1        0.0621
     15 C         137.4778  143.1695  155.9005 C.ar    1  UNL1        0.2611
     16 O         137.1293  144.0928  154.7710 O.2     1  UNL1       -0.2670
     17 N         136.6502  141.9435  156.1497 N.ar    1  UNL1       -0.2910
     18 C         135.4740  141.6409  155.2693 C.3     1  UNL1        0.1336
     19 C         136.9988  141.0202  157.2793 C.ar    1  UNL1        0.0933
     20 C         138.5041  138.9056  165.9738 C.3     1  UNL1        0.1063
     21 C         139.3702  139.7289  166.8803 C.3     1  UNL1        0.1483
     22 O         139.2623  139.5708  168.3681 O.3     1  UNL1       -0.3786
     23 H         139.8868  140.1720  168.8033 H       1  UNL1        0.2108
     24 C         142.0878  138.8066  166.0062 C.3     1  UNL1        0.0306
     25 C         141.7032  140.2492  165.8621 C.ar    1  UNL1       -0.0238
     26 C         140.3444  140.7104  166.2992 C.ar    1  UNL1        0.0015
     27 C         139.9598  142.1531  166.1551 C.ar    1  UNL1       -0.0020
     28 C         140.9339  143.1346  165.5740 C.ar    1  UNL1        0.0060
     29 C         142.2926  142.6734  165.1369 C.ar    1  UNL1        0.0748
     30 C         142.6773  141.2307  165.2810 C.ar    1  UNL1        0.0233
     31 C         144.0771  141.0706  164.7664 C.3     1  UNL1        0.2352
     32 O         144.5577  142.4143  164.3043 O.3     1  UNL1       -0.4404
     33 C         143.4548  143.4049  164.5333 C.2     1  UNL1        0.3413
     34 O         143.5051  144.8698  164.2146 O.2     1  UNL1       -0.2449
@<TRIPOS>BOND
     1    24    25    1
     2    25    26   ar
     3    26    21    1
     4    21    22    1
     5    21    20    1
     6    20     1    1
     7     1     2    1
     8     2     3    1
     9     3     4    1
    10     4     5    1
    11     5     6    1
    12     4     7    1
    13     7     8    1
    14     8     9    1
    15     9    12    1
    16    12    13   ar
    17    13    14   ar
    18    14    15   ar
    19    15    16    2
    20    15    17   ar
    21    17    18    1
    22    17    19   ar
    23     9    10   am
    24    10    11    2
    25    26    27   ar
    26    27    28   ar
    27    28    29   ar
    28    29    30   ar
    29    30    31    1
    30    31    32    1
    31    32    33    1
    32    33    34    2
    33    30    25   ar
    34     6     1    1
    35    19    12   ar
    36    33    29    1
    37    10     4    1
    38    22    23    1
@<TRIPOS>MOLECULE
*****
 34 38 0 0 0
SMALL
GASTEIGER

@<TRIPOS>ATOM
      1 N         144.9238  141.6190  163.0558 N.3     1  UNL1       -0.2703
      2 C         144.6259  142.0165  161.6405 C.3     1  UNL1        0.0727
      3 C         144.0687  141.0083  160.6797 C.3     1  UNL1        0.0260
      4 C         143.8095  139.6026  161.1343 C.3     1  UNL1        0.0737
      5 C         144.1075  139.2050  162.5496 C.3     1  UNL1        0.0260
      6 C         144.6646  140.2132  163.5104 C.3     1  UNL1        0.0727
      7 C         143.5001  138.1676  161.4430 C.3     1  UNL1        0.0306
      8 C         142.9633  137.5304  160.1956 C.3     1  UNL1        0.0987
      9 N         142.9409  138.5716  159.1160 N.am    1  UNL1       -0.2573
     10 C         143.4639  139.8522  159.6961 C.2     1  UNL1        0.2286
     11 O         143.6148  141.1539  158.9663 O.2     1  UNL1       -0.2746
     12 C         142.4770  138.3679  157.7042 C.ar    1  UNL1        0.0713
     13 C         143.3844  138.7100  156.5599 C.ar    1  UNL1        0.0213
     14 C         142.9205  138.5063  155.1480 C.ar    1  UNL1        0.0621
     15 C         141.5492  137.9605  154.8805 C.ar    1  UNL1        0.2611
     16 O         141.0853  137.7568  153.4687 O.2     1  UNL1       -0.2670
     17 N         140.6417  137.6184  156.0249 N.ar    1  UNL1       -0.2910
     18 C         139.2704  137.0725  155.7574 C.3     1  UNL1        0.1336
     19 C         141.1057  137.8221  157.4367 C.ar    1  UNL1        0.0933
     20 C         145.4810  142.6272  164.0166 C.3     1  UNL1        0.1063
     21 C         144.5568  143.4133  164.8986 C.3     1  UNL1        0.1483
     22 O         145.0500  143.9559  166.2072 O.3     1  UNL1       -0.3786
     23 H         144.3320  144.4353  166.6496 H       1  UNL1        0.2108
     24 C         142.3309  141.7999  166.0995 C.3     1  UNL1        0.0306
     25 C         142.0265  142.8500  165.0726 C.ar    1  UNL1       -0.0238
     26 C         143.1394  143.6566  164.4721 C.ar    1  UNL1        0.0015
     27 C         142.8351  144.7067  163.4451 C.ar    1  UNL1       -0.0020
     28 C         141.4178  144.9501  163.0186 C.ar    1  UNL1        0.0060
     29 C         140.3048  144.1435  163.6191 C.ar    1  UNL1        0.0748
     30 C         140.6092  143.0934  164.6460 C.ar    1  UNL1        0.0233
     31 C         139.3139  142.4596  165.0589 C.3     1  UNL1        0.2352
     32 O         138.2089  143.1180  164.2871 O.3     1  UNL1       -0.4404
     33 C         138.8214  144.1586  163.3972 C.2     1  UNL1        0.3413
     34 O         138.0805  145.0569  162.4515 O.2     1  UNL1       -0.2449
@<TRIPOS>BOND
     1    24    25    1
     2    25    26   ar
     3    26    21    1
     4    21    22    1
     5    21    20    1
     6    20     1    1
     7     1     2    1
     8     2     3    1
     9     3     4    1
    10     4     5    1
    11     5     6    1
    12     4     7    1
    13     7     8    1
    14     8     9    1
    15     9    12    1
    16    12    13   ar
    17    13    14   ar
    18    14    15   ar
    19    15    16    2
    20    15    17   ar
    21    17    18    1
    22    17    19   ar
    23     9    10   am
    24    10    11    2
    25    26    27   ar
    26    27    28   ar
    27    28    29   ar
    28    29    30   ar
    29    30    31    1
    30    31    32    1
    31    32    33    1
    32    33    34    2
    33    30    25   ar
    34     6     1    1
    35    19    12   ar
    36    33    29    1
    37    10     4    1
    38    22    23    1
@<TRIPOS>MOLECULE
*****
 34 38 0 0 0
SMALL
GASTEIGER

@<TRIPOS>ATOM
      1 N         142.6141  139.1718  165.0040 N.3     1  UNL1       -0.2703
      2 C         141.5866  138.4536  164.1804 C.3     1  UNL1        0.0727
      3 C         141.7581  138.3465  162.6941 C.3     1  UNL1        0.0260
      4 C         142.9571  138.9575  162.0315 C.3     1  UNL1        0.0737
      5 C         143.9846  139.6756  162.8551 C.3     1  UNL1        0.0260
      6 C         143.8131  139.7828  164.3414 C.3     1  UNL1        0.0727
      7 C         144.0979  139.5154  161.2331 C.3     1  UNL1        0.0306
      8 C         143.8638  139.1763  159.7907 C.3     1  UNL1        0.0987
      9 N         142.5782  138.4089  159.6977 N.am    1  UNL1       -0.2573
     10 C         142.0179  138.2736  161.0825 C.2     1  UNL1        0.2286
     11 O         140.7424  137.5769  161.4535 O.2     1  UNL1       -0.2746
     12 C         141.9614  137.8711  158.4407 C.ar    1  UNL1        0.0713
     13 C         140.5637  138.2638  158.0637 C.ar    1  UNL1        0.0213
     14 C         139.9468  137.7260  156.8066 C.ar    1  UNL1        0.0621
     15 C         140.7277  136.7956  155.9265 C.ar    1  UNL1        0.2611
     16 O         140.1108  136.2578  154.6694 O.2     1  UNL1       -0.2670
     17 N         142.1255  136.4029  156.3035 N.ar    1  UNL1       -0.2910
     18 C         142.9064  135.4725  155.4234 C.3     1  UNL1        0.1336
     19 C         142.7423  136.9407  157.5606 C.ar    1  UNL1        0.0933
     20 C         142.4427  139.2789  166.4904 C.3     1  UNL1        0.1063
     21 C         141.6990  140.4417  167.0777 C.3     1  UNL1        0.1483
     22 O         141.6984  140.6592  168.5618 O.3     1  UNL1       -0.3786
     23 H         141.1750  141.4481  168.7728 H       1  UNL1        0.2108
     24 C         143.1068  142.8185  165.9076 C.3     1  UNL1        0.0306
     25 C         141.6598  142.5754  165.5958 C.ar    1  UNL1       -0.0238
     26 C         140.9560  141.3870  166.1808 C.ar    1  UNL1        0.0015
     27 C         139.5090  141.1438  165.8690 C.ar    1  UNL1       -0.0020
     28 C         138.7659  142.0891  164.9722 C.ar    1  UNL1        0.0060
     29 C         139.4698  143.2775  164.3872 C.ar    1  UNL1        0.0748
     30 C         140.9167  143.5206  164.6990 C.ar    1  UNL1        0.0233
     31 C         141.3423  144.7673  163.9817 C.3     1  UNL1        0.2352
     32 O         140.1584  145.2947  163.2265 O.3     1  UNL1       -0.4404
     33 C         139.0012  144.3739  163.4771 C.2     1  UNL1        0.3413
     34 O         137.6180  144.5233  162.9162 O.2     1  UNL1       -0.2449
@<TRIPOS>BOND
     1    24    25    1
     2    25    26   ar
     3    26    21    1
     4    21    22    1
     5    21    20    1
     6    20     1    1
     7     1     2    1
     8     2     3    1
     9     3     4    1
    10     4     5    1
    11     5     6    1
    12     4     7    1
    13     7     8    1
    14     8     9    1
    15     9    12    1
    16    12    13   ar
    17    13    14   ar
    18    14    15   ar
    19    15    16    2
    20    15    17   ar
    21    17    18    1
    22    17    19   ar
    23     9    10   am
    24    10    11    2
    25    26    27   ar
    26    27    28   ar
    27    28    29   ar
    28    29    30   ar
    29    30    31    1
    30    31    32    1
    31    32    33    1
    32    33    34    2
    33    30    25   ar
    34     6     1    1
    35    19    12   ar
    36    33    29    1
    37    10     4    1
    38    22    23    1
@<TRIPOS>MOLECULE
*****
 34 38 0 0 0
SMALL
GASTEIGER

@<TRIPOS>ATOM
      1 N         144.2118  140.6499  162.6240 N.3     1  UNL1       -0.2703
      2 C         143.7654  139.2371  162.3906 C.3     1  UNL1        0.0727
      3 C         143.4451  138.7716  161.0011 C.3     1  UNL1        0.0260
      4 C         143.5713  139.7190  159.8450 C.3     1  UNL1        0.0737
      5 C         144.0177  141.1319  160.0784 C.3     1  UNL1        0.0260
      6 C         144.3380  141.5973  161.4679 C.3     1  UNL1        0.0727
      7 C         143.6505  140.5479  158.5973 C.3     1  UNL1        0.0306
      8 C         143.2437  139.6841  157.4403 C.3     1  UNL1        0.0987
      9 N         142.9131  138.3213  157.9731 N.am    1  UNL1       -0.2573
     10 C         143.1155  138.3429  159.4592 C.2     1  UNL1        0.2286
     11 O         142.9001  137.1908  160.3952 O.2     1  UNL1       -0.2746
     12 C         142.4597  137.1438  157.1621 C.ar    1  UNL1        0.0713
     13 C         141.2903  137.2790  156.2325 C.ar    1  UNL1        0.0213
     14 C         140.8368  136.1015  155.4214 C.ar    1  UNL1        0.0621
     15 C         141.5528  134.7887  155.5400 C.ar    1  UNL1        0.2611
     16 O         141.0993  133.6111  154.7290 O.2     1  UNL1       -0.2670
     17 N         142.7222  134.6535  156.4697 N.ar    1  UNL1       -0.2910
     18 C         143.4381  133.3407  156.5884 C.3     1  UNL1        0.1336
     19 C         143.1756  135.8311  157.2807 C.ar    1  UNL1        0.0933
     20 C         144.5321  141.1154  164.0136 C.3     1  UNL1        0.1063
     21 C         143.4939  141.8368  164.8208 C.3     1  UNL1        0.1483
     22 O         143.3769  141.5795  166.2939 O.3     1  UNL1       -0.3786
     23 H         142.6620  142.1225  166.6613 H       1  UNL1        0.2108
     24 C         140.7874  140.9484  163.8799 C.3     1  UNL1        0.0306
     25 C         141.2195  142.3715  163.6846 C.ar    1  UNL1       -0.0238
     26 C         142.5727  142.8157  164.1550 C.ar    1  UNL1        0.0015
     27 C         143.0048  144.2388  163.9596 C.ar    1  UNL1       -0.0020
     28 C         142.0837  145.2176  163.2938 C.ar    1  UNL1        0.0060
     29 C         140.7305  144.7734  162.8234 C.ar    1  UNL1        0.0748
     30 C         140.2983  143.3503  163.0187 C.ar    1  UNL1        0.0233
     31 C         138.9159  143.2041  162.4552 C.3     1  UNL1        0.2352
     32 O         138.4936  144.5368  161.9115 O.3     1  UNL1       -0.4404
     33 C         139.6151  145.5066  162.1391 C.2     1  UNL1        0.3413
     34 O         139.6203  146.9554  161.7506 O.2     1  UNL1       -0.2449
@<TRIPOS>BOND
     1    24    25    1
     2    25    26   ar
     3    26    21    1
     4    21    22    1
     5    21    20    1
     6    20     1    1
     7     1     2    1
     8     2     3    1
     9     3     4    1
    10     4     5    1
    11     5     6    1
    12     4     7    1
    13     7     8    1
    14     8     9    1
    15     9    12    1
    16    12    13   ar
    17    13    14   ar
    18    14    15   ar
    19    15    16    2
    20    15    17   ar
    21    17    18    1
    22    17    19   ar
    23     9    10   am
    24    10    11    2
    25    26    27   ar
    26    27    28   ar
    27    28    29   ar
    28    29    30   ar
    29    30    31    1
    30    31    32    1
    31    32    33    1
    32    33    34    2
    33    30    25   ar
    34     6     1    1
    35    19    12   ar
    36    33    29    1
    37    10     4    1
    38    22    23    1
