@<TRIPOS>MOLECULE
*****
 37 41 0 0 0
SMALL
GASTEIGER

@<TRIPOS>ATOM
      1 C         140.8902  141.6650  165.7907 C.3     1  UNL1        0.0760
      2 C         139.9803  143.8467  164.7125 C.ar    1  UNL1        0.1351
      3 C         139.8781  144.7684  163.5336 C.ar    1  UNL1        0.0366
      4 C         140.5838  144.4303  162.2538 C.ar    1  UNL1        0.0030
      5 C         140.4817  145.3520  161.0749 C.ar    1  UNL1        0.0006
      6 C         141.1873  145.0139  159.7952 C.ar    1  UNL1        0.0067
      7 C         141.9951  143.7540  159.6944 C.ar    1  UNL1        0.0346
      8 BR        142.7008  143.4158  158.4146 Br      1  UNL1       -0.0490
      9 C         142.0972  142.8322  160.8733 C.ar    1  UNL1        0.0067
     10 C         141.3916  143.1704  162.1530 C.ar    1  UNL1        0.0004
     11 C         141.4937  142.2486  163.3320 C.ar    1  UNL1       -0.0009
     12 C         140.7880  142.5868  164.6117 C.ar    1  UNL1        0.0181
     13 C         138.1697  145.1993  165.9941 C.3     1  UNL1        0.2525
     14 O         139.2746  144.1848  165.9923 O.3     1  UNL1       -0.4717
     15 C         139.9447  140.5079  165.9222 C.ar    1  UNL1       -0.0157
     16 C         139.6315  139.6559  164.7280 C.ar    1  UNL1       -0.0039
     17 C         138.6861  138.4988  164.8595 C.ar    1  UNL1       -0.0003
     18 C         138.0539  138.1937  166.1850 C.ar    1  UNL1       -0.0000
     19 C         138.3671  139.0457  167.3793 C.ar    1  UNL1       -0.0003
     20 C         139.3125  140.2028  167.2478 C.ar    1  UNL1       -0.0039
     21 C         141.9376  141.9004  166.8383 C.3     1  UNL1        0.1155
     22 O         141.0045  142.8238  167.5639 O.3     1  UNL1       -0.3820
     23 H         140.6214  143.4556  166.9355 H       1  UNL1        0.2107
     24 C         142.8708  140.9770  166.1126 C.ar    1  UNL1       -0.0019
     25 C         142.7760  139.4952  166.3260 C.ar    1  UNL1       -0.0024
     26 C         143.7091  138.5718  165.6003 C.ar    1  UNL1       -0.0006
     27 C         144.7371  139.1301  164.6614 C.ar    1  UNL1       -0.0046
     28 C         144.8318  140.6118  164.4480 C.ar    1  UNL1       -0.0264
     29 C         143.8987  141.5353  165.1737 C.ar    1  UNL1       -0.0279
     30 C         144.2268  142.9408  164.7652 C.3     1  UNL1        0.0261
     31 C         145.3627  142.8860  163.7871 C.3     1  UNL1        0.0093
     32 C         145.7366  141.4466  163.5911 C.3     1  UNL1        0.0264
     33 C         142.9851  142.1357  167.8858 C.3     1  UNL1        0.0491
     34 C         142.5791  142.4380  169.2978 C.3     1  UNL1        0.0750
     35 N         141.9389  141.3733  170.1384 N.3     1  UNL1       -0.2702
     36 C         140.8292  141.7296  171.0828 C.3     1  UNL1        0.0897
     37 C         142.4082  139.9525  170.0346 C.3     1  UNL1        0.0897
@<TRIPOS>BOND
     1    13    14    1
     2    14     2    1
     3     2     3   ar
     4     3     4   ar
     5     4     5   ar
     6     5     6   ar
     7     6     7   ar
     8     7     8    1
     9     7     9   ar
    10     9    10   ar
    11    10    11   ar
    12    11    12   ar
    13     1    12    1
    14     1    15    1
    15    15    16   ar
    16    16    17   ar
    17    17    18   ar
    18    18    19   ar
    19    19    20   ar
    20     1    21    1
    21    21    22    1
    22    21    33    1
    23    33    34    1
    24    34    35    1
    25    35    36    1
    26    35    37    1
    27    21    24    1
    28    24    25   ar
    29    25    26   ar
    30    26    27   ar
    31    27    28   ar
    32    28    29   ar
    33    29    30    1
    34    30    31    1
    35    31    32    1
    36    12     2   ar
    37    20    15   ar
    38    29    24   ar
    39    10     4   ar
    40    32    28    1
    41    22    23    1
@<TRIPOS>MOLECULE
*****
 37 41 0 0 0
SMALL
GASTEIGER

@<TRIPOS>ATOM
      1 C         141.0745  140.3123  165.2040 C.3     1  UNL1        0.0760
      2 C         142.6770  139.7870  163.2276 C.ar    1  UNL1        0.1351
      3 C         143.0097  139.8710  161.7674 C.ar    1  UNL1        0.0366
      4 C         142.0725  140.5641  160.8232 C.ar    1  UNL1        0.0030
      5 C         142.4053  140.6480  159.3631 C.ar    1  UNL1        0.0006
      6 C         141.4681  141.3410  158.4190 C.ar    1  UNL1        0.0067
      7 C         140.1983  141.9502  158.9351 C.ar    1  UNL1        0.0346
      8 BR        139.2611  142.6433  157.9909 Br      1  UNL1       -0.0490
      9 C         139.8655  141.8663  160.3953 C.ar    1  UNL1        0.0067
     10 C         140.8027  141.1732  161.3394 C.ar    1  UNL1        0.0004
     11 C         140.4700  141.0893  162.7996 C.ar    1  UNL1       -0.0009
     12 C         141.4071  140.3962  163.7437 C.ar    1  UNL1        0.0181
     13 C         145.0208  139.5899  164.3312 C.3     1  UNL1        0.2525
     14 O         143.6142  139.0939  164.1718 O.3     1  UNL1       -0.4717
     15 C         139.9658  139.4160  165.6703 C.ar    1  UNL1       -0.0157
     16 C         139.1179  139.8183  166.8404 C.ar    1  UNL1       -0.0039
     17 C         138.0092  138.9219  167.3067 C.ar    1  UNL1       -0.0003
     18 C         137.7485  137.6233  166.6029 C.ar    1  UNL1       -0.0000
     19 C         138.5964  137.2209  165.4327 C.ar    1  UNL1       -0.0003
     20 C         139.7050  138.1172  164.9664 C.ar    1  UNL1       -0.0039
     21 C         141.8504  141.1247  166.1979 C.3     1  UNL1        0.1155
     22 O         142.3998  139.8649  166.7987 O.3     1  UNL1       -0.3820
     23 H         141.6751  139.2402  166.9586 H       1  UNL1        0.2107
     24 C         141.3011  142.3845  165.5971 C.ar    1  UNL1       -0.0019
     25 C         139.8795  142.7837  165.8615 C.ar    1  UNL1       -0.0024
     26 C         139.3302  144.0435  165.2606 C.ar    1  UNL1       -0.0006
     27 C         140.2023  144.9042  164.3954 C.ar    1  UNL1       -0.0046
     28 C         141.6238  144.5050  164.1310 C.ar    1  UNL1       -0.0264
     29 C         142.1733  143.2451  164.7318 C.ar    1  UNL1       -0.0279
     30 C         143.6025  143.1092  164.2972 C.3     1  UNL1        0.0261
     31 C         143.9364  144.2850  163.4278 C.3     1  UNL1        0.0093
     32 C         142.7135  145.1476  163.3250 C.3     1  UNL1        0.0264
     33 C         142.6264  141.9370  167.1918 C.3     1  UNL1        0.0491
     34 C         142.6720  141.5173  168.6312 C.3     1  UNL1        0.0750
     35 N         141.3970  141.2546  169.3765 N.3     1  UNL1       -0.2702
     36 C         141.1627  139.9169  170.0134 C.3     1  UNL1        0.0897
     37 C         140.3566  142.3295  169.4850 C.3     1  UNL1        0.0897
@<TRIPOS>BOND
     1    13    14    1
     2    14     2    1
     3     2     3   ar
     4     3     4   ar
     5     4     5   ar
     6     5     6   ar
     7     6     7   ar
     8     7     8    1
     9     7     9   ar
    10     9    10   ar
    11    10    11   ar
    12    11    12   ar
    13     1    12    1
    14     1    15    1
    15    15    16   ar
    16    16    17   ar
    17    17    18   ar
    18    18    19   ar
    19    19    20   ar
    20     1    21    1
    21    21    22    1
    22    21    33    1
    23    33    34    1
    24    34    35    1
    25    35    36    1
    26    35    37    1
    27    21    24    1
    28    24    25   ar
    29    25    26   ar
    30    26    27   ar
    31    27    28   ar
    32    28    29   ar
    33    29    30    1
    34    30    31    1
    35    31    32    1
    36    12     2   ar
    37    20    15   ar
    38    29    24   ar
    39    10     4   ar
    40    32    28    1
    41    22    23    1
@<TRIPOS>MOLECULE
*****
 37 41 0 0 0
SMALL
GASTEIGER

@<TRIPOS>ATOM
      1 C         140.6216  140.7345  162.5868 C.3     1  UNL1        0.0760
      2 C         139.1845  139.7331  164.5057 C.ar    1  UNL1        0.1351
      3 C         138.8892  139.5915  165.9694 C.ar    1  UNL1        0.0366
      4 C         139.7357  140.3097  166.9783 C.ar    1  UNL1        0.0030
      5 C         139.4403  140.1680  168.4421 C.ar    1  UNL1        0.0006
      6 C         140.2868  140.8862  169.4508 C.ar    1  UNL1        0.0067
      7 C         141.4287  141.7460  168.9958 C.ar    1  UNL1        0.0346
      8 BR        142.2752  142.4641  170.0047 Br      1  UNL1       -0.0490
      9 C         141.7240  141.8876  167.5321 C.ar    1  UNL1        0.0067
     10 C         140.8775  141.1694  166.5233 C.ar    1  UNL1        0.0004
     11 C         141.1728  141.3110  165.0594 C.ar    1  UNL1       -0.0009
     12 C         140.3263  140.5929  164.0507 C.ar    1  UNL1        0.0181
     13 C         138.7099  137.6305  163.0551 C.3     1  UNL1        0.2525
     14 O         138.3380  139.0149  163.4968 O.3     1  UNL1       -0.4717
     15 C         141.7980  140.0230  161.9868 C.ar    1  UNL1       -0.0157
     16 C         142.2812  138.7355  162.5857 C.ar    1  UNL1       -0.0039
     17 C         143.4575  138.0241  161.9857 C.ar    1  UNL1       -0.0003
     18 C         144.1507  138.6001  160.7867 C.ar    1  UNL1       -0.0000
     19 C         143.6675  139.8877  160.1877 C.ar    1  UNL1       -0.0003
     20 C         142.4912  140.5992  160.7877 C.ar    1  UNL1       -0.0039
     21 C         139.7406  141.5875  161.7230 C.3     1  UNL1        0.1155
     22 O         139.2690  140.3636  160.9953 O.3     1  UNL1       -0.3820
     23 H         140.0340  139.8255  160.7382 H       1  UNL1        0.2107
     24 C         140.2122  142.8114  162.4507 C.ar    1  UNL1       -0.0019
     25 C         141.5500  143.4077  162.1269 C.ar    1  UNL1       -0.0024
     26 C         142.0215  144.6316  162.8547 C.ar    1  UNL1       -0.0006
     27 C         141.1554  145.2593  163.9062 C.ar    1  UNL1       -0.0046
     28 C         139.8176  144.6631  164.2300 C.ar    1  UNL1       -0.0264
     29 C         139.3460  143.4391  163.5023 C.ar    1  UNL1       -0.0279
     30 C         137.9901  143.0782  164.0326 C.3     1  UNL1        0.0261
     31 C         137.6237  144.0790  165.0880 C.3     1  UNL1        0.0093
     32 C         138.7531  145.0586  165.2100 C.3     1  UNL1        0.0264
     33 C         138.8596  142.4405  160.8593 C.3     1  UNL1        0.0491
     34 C         138.7661  142.1716  159.3866 C.3     1  UNL1        0.0750
     35 N         140.0110  142.1344  158.5504 N.3     1  UNL1       -0.2702
     36 C         140.9177  143.3284  158.5018 C.3     1  UNL1        0.0897
     37 C         140.3491  140.9034  157.7630 C.3     1  UNL1        0.0897
@<TRIPOS>BOND
     1    13    14    1
     2    14     2    1
     3     2     3   ar
     4     3     4   ar
     5     4     5   ar
     6     5     6   ar
     7     6     7   ar
     8     7     8    1
     9     7     9   ar
    10     9    10   ar
    11    10    11   ar
    12    11    12   ar
    13     1    12    1
    14     1    15    1
    15    15    16   ar
    16    16    17   ar
    17    17    18   ar
    18    18    19   ar
    19    19    20   ar
    20     1    21    1
    21    21    22    1
    22    21    33    1
    23    33    34    1
    24    34    35    1
    25    35    36    1
    26    35    37    1
    27    21    24    1
    28    24    25   ar
    29    25    26   ar
    30    26    27   ar
    31    27    28   ar
    32    28    29   ar
    33    29    30    1
    34    30    31    1
    35    31    32    1
    36    12     2   ar
    37    20    15   ar
    38    29    24   ar
    39    10     4   ar
    40    32    28    1
    41    22    23    1
@<TRIPOS>MOLECULE
*****
 37 41 0 0 0
SMALL
GASTEIGER

@<TRIPOS>ATOM
      1 C         141.2061  140.7933  165.0825 C.3     1  UNL1        0.0760
      2 C         138.9919  139.8826  164.0735 C.ar    1  UNL1        0.1351
      3 C         138.0964  139.6651  162.8900 C.ar    1  UNL1        0.0366
      4 C         138.5196  140.1408  161.5318 C.ar    1  UNL1        0.0030
      5 C         137.6241  139.9233  160.3483 C.ar    1  UNL1        0.0006
      6 C         138.0472  140.3990  158.9902 C.ar    1  UNL1        0.0067
      7 C         139.3659  141.0922  158.8156 C.ar    1  UNL1        0.0346
      8 BR        139.7891  141.5680  157.4573 Br      1  UNL1       -0.0490
      9 C         140.2614  141.3098  159.9991 C.ar    1  UNL1        0.0067
     10 C         139.8383  140.8340  161.3572 C.ar    1  UNL1        0.0004
     11 C         140.7338  141.0516  162.5408 C.ar    1  UNL1       -0.0009
     12 C         140.3106  140.5758  163.8989 C.ar    1  UNL1        0.0181
     13 C         138.5462  137.9388  165.7388 C.3     1  UNL1        0.2525
     14 O         138.5688  139.4069  165.4318 O.3     1  UNL1       -0.4717
     15 C         142.4839  140.0179  165.2087 C.ar    1  UNL1       -0.0157
     16 C         143.6447  140.3341  164.3129 C.ar    1  UNL1       -0.0039
     17 C         144.9225  139.5587  164.4391 C.ar    1  UNL1       -0.0003
     18 C         145.0395  138.4670  165.4611 C.ar    1  UNL1       -0.0000
     19 C         143.8787  138.1508  166.3570 C.ar    1  UNL1       -0.0003
     20 C         142.6009  138.9262  166.2308 C.ar    1  UNL1       -0.0039
     21 C         140.8238  141.7862  166.1398 C.3     1  UNL1        0.1155
     22 O         140.5201  140.6623  167.0855 O.3     1  UNL1       -0.3820
     23 H         139.9629  140.0057  166.6391 H       1  UNL1        0.2107
     24 C         141.1275  142.9102  165.1941 C.ar    1  UNL1       -0.0019
     25 C         142.5455  143.3536  164.9868 C.ar    1  UNL1       -0.0024
     26 C         142.8492  144.4776  164.0412 C.ar    1  UNL1       -0.0006
     27 C         141.7350  145.1582  163.3027 C.ar    1  UNL1       -0.0046
     28 C         140.3171  144.7149  163.5099 C.ar    1  UNL1       -0.0264
     29 C         140.0134  143.5909  164.4556 C.ar    1  UNL1       -0.0279
     30 C         138.5291  143.3738  164.4562 C.3     1  UNL1        0.0261
     31 C         137.9156  144.3636  163.5108 C.3     1  UNL1        0.0093
     32 C         139.0206  145.1925  162.9260 C.3     1  UNL1        0.0264
     33 C         140.4415  142.7791  167.1971 C.3     1  UNL1        0.0491
     34 C         140.4286  142.3704  168.6403 C.3     1  UNL1        0.0750
     35 N         141.7162  142.2732  169.4038 N.3     1  UNL1       -0.2702
     36 C         143.0263  142.3880  168.6825 C.3     1  UNL1        0.0897
     37 C         141.6935  142.0612  170.8886 C.3     1  UNL1        0.0897
@<TRIPOS>BOND
     1    13    14    1
     2    14     2    1
     3     2     3   ar
     4     3     4   ar
     5     4     5   ar
     6     5     6   ar
     7     6     7   ar
     8     7     8    1
     9     7     9   ar
    10     9    10   ar
    11    10    11   ar
    12    11    12   ar
    13     1    12    1
    14     1    15    1
    15    15    16   ar
    16    16    17   ar
    17    17    18   ar
    18    18    19   ar
    19    19    20   ar
    20     1    21    1
    21    21    22    1
    22    21    33    1
    23    33    34    1
    24    34    35    1
    25    35    36    1
    26    35    37    1
    27    21    24    1
    28    24    25   ar
    29    25    26   ar
    30    26    27   ar
    31    27    28   ar
    32    28    29   ar
    33    29    30    1
    34    30    31    1
    35    31    32    1
    36    12     2   ar
    37    20    15   ar
    38    29    24   ar
    39    10     4   ar
    40    32    28    1
    41    22    23    1
@<TRIPOS>MOLECULE
*****
 37 41 0 0 0
SMALL
GASTEIGER

@<TRIPOS>ATOM
      1 C         141.7964  141.4477  162.3227 C.3     1  UNL1        0.0760
      2 C         143.0921  142.5049  164.3111 C.ar    1  UNL1        0.1351
      3 C         143.2535  142.7256  165.7859 C.ar    1  UNL1        0.0366
      4 C         142.2806  142.1098  166.7474 C.ar    1  UNL1        0.0030
      5 C         142.4421  142.3305  168.2222 C.ar    1  UNL1        0.0006
      6 C         141.4693  141.7147  169.1836 C.ar    1  UNL1        0.0067
      7 C         140.3350  140.8781  168.6702 C.ar    1  UNL1        0.0346
      8 BR        139.3621  140.2623  169.6316 Br      1  UNL1       -0.0490
      9 C         140.1735  140.6574  167.1953 C.ar    1  UNL1        0.0067
     10 C         141.1464  141.2732  166.2339 C.ar    1  UNL1        0.0004
     11 C         140.9849  141.0525  164.7590 C.ar    1  UNL1       -0.0009
     12 C         141.9578  141.6684  163.7976 C.ar    1  UNL1        0.0181
     13 C         144.0454  144.6010  163.1079 C.3     1  UNL1        0.2525
     14 O         144.0649  143.1207  163.3496 O.3     1  UNL1       -0.4717
     15 C         142.2303  140.1507  161.7065 C.ar    1  UNL1       -0.0157
     16 C         143.2858  139.3196  162.3736 C.ar    1  UNL1       -0.0039
     17 C         143.7198  138.0227  161.7574 C.ar    1  UNL1       -0.0003
     18 C         143.0983  137.5569  160.4742 C.ar    1  UNL1       -0.0000
     19 C         142.0427  138.3881  159.8070 C.ar    1  UNL1       -0.0003
     20 C         141.6088  139.6850  160.4232 C.ar    1  UNL1       -0.0039
     21 C         141.2010  142.5238  161.4641 C.3     1  UNL1        0.1155
     22 O         142.5381  142.7528  160.8240 O.3     1  UNL1       -0.3820
     23 H         143.2169  142.8312  161.5124 H       1  UNL1        0.2107
     24 C         139.8639  142.2948  162.1042 C.ar    1  UNL1       -0.0019
     25 C         139.0115  141.1402  161.6680 C.ar    1  UNL1       -0.0024
     26 C         137.6744  140.9112  162.3081 C.ar    1  UNL1       -0.0006
     27 C         137.1897  141.8368  163.3843 C.ar    1  UNL1       -0.0046
     28 C         138.0421  142.9914  163.8205 C.ar    1  UNL1       -0.0264
     29 C         139.3792  143.2205  163.1804 C.ar    1  UNL1       -0.0279
     30 C         139.9943  144.4335  163.8131 C.3     1  UNL1        0.0261
     31 C         139.0374  144.9541  164.8441 C.3     1  UNL1        0.0093
     32 C         137.8308  144.0629  164.8487 C.3     1  UNL1        0.0264
     33 C         140.6056  143.6000  160.6054 C.3     1  UNL1        0.0491
     34 C         140.5459  143.4247  159.1169 C.3     1  UNL1        0.0750
     35 N         141.2056  144.4268  158.2166 N.3     1  UNL1       -0.2702
     36 C         142.6029  144.1887  157.7259 C.3     1  UNL1        0.0897
     37 C         140.4680  145.6670  157.8070 C.3     1  UNL1        0.0897
@<TRIPOS>BOND
     1    13    14    1
     2    14     2    1
     3     2     3   ar
     4     3     4   ar
     5     4     5   ar
     6     5     6   ar
     7     6     7   ar
     8     7     8    1
     9     7     9   ar
    10     9    10   ar
    11    10    11   ar
    12    11    12   ar
    13     1    12    1
    14     1    15    1
    15    15    16   ar
    16    16    17   ar
    17    17    18   ar
    18    18    19   ar
    19    19    20   ar
    20     1    21    1
    21    21    22    1
    22    21    33    1
    23    33    34    1
    24    34    35    1
    25    35    36    1
    26    35    37    1
    27    21    24    1
    28    24    25   ar
    29    25    26   ar
    30    26    27   ar
    31    27    28   ar
    32    28    29   ar
    33    29    30    1
    34    30    31    1
    35    31    32    1
    36    12     2   ar
    37    20    15   ar
    38    29    24   ar
    39    10     4   ar
    40    32    28    1
    41    22    23    1
@<TRIPOS>MOLECULE
*****
 37 41 0 0 0
SMALL
GASTEIGER

@<TRIPOS>ATOM
      1 C         141.5381  141.3592  163.7422 C.3     1  UNL1        0.0760
      2 C         143.4219  142.8671  162.7791 C.ar    1  UNL1        0.1351
      3 C         144.3376  143.2411  161.6515 C.ar    1  UNL1        0.0366
      4 C         144.2853  142.4813  160.3592 C.ar    1  UNL1        0.0030
      5 C         145.2010  142.8553  159.2316 C.ar    1  UNL1        0.0006
      6 C         145.1486  142.0955  157.9394 C.ar    1  UNL1        0.0067
      7 C         144.1806  140.9616  157.7748 C.ar    1  UNL1        0.0346
      8 BR        144.1282  140.2017  156.4825 Br      1  UNL1       -0.0490
      9 C         143.2648  140.5875  158.9024 C.ar    1  UNL1        0.0067
     10 C         143.3172  141.3474  160.1946 C.ar    1  UNL1        0.0004
     11 C         142.4015  140.9734  161.3223 C.ar    1  UNL1       -0.0009
     12 C         142.4538  141.7332  162.6145 C.ar    1  UNL1        0.0181
     13 C         144.5971  143.3881  165.0369 C.3     1  UNL1        0.2525
     14 O         143.4743  143.6270  164.0714 O.3     1  UNL1       -0.4717
     15 C         142.0578  140.5503  164.8935 C.ar    1  UNL1       -0.0157
     16 C         142.5776  139.1626  164.6610 C.ar    1  UNL1       -0.0039
     17 C         143.0973  138.3537  165.8124 C.ar    1  UNL1       -0.0003
     18 C         143.0972  138.9324  167.1962 C.ar    1  UNL1       -0.0000
     19 C         142.5773  140.3202  167.4287 C.ar    1  UNL1       -0.0003
     20 C         142.0576  141.1291  166.2774 C.ar    1  UNL1       -0.0039
     21 C         140.1028  141.7941  163.7185 C.3     1  UNL1        0.1155
     22 O         140.5343  143.2252  163.8424 O.3     1  UNL1       -0.3820
     23 H         141.1818  143.3067  164.5601 H       1  UNL1        0.2107
     24 C         139.6712  140.3629  163.5945 C.ar    1  UNL1       -0.0019
     25 C         139.7977  139.6525  162.2794 C.ar    1  UNL1       -0.0024
     26 C         139.3661  138.2214  162.1555 C.ar    1  UNL1       -0.0006
     27 C         138.8080  137.5004  163.3466 C.ar    1  UNL1       -0.0046
     28 C         138.6815  138.2107  164.6617 C.ar    1  UNL1       -0.0264
     29 C         139.1131  139.6419  164.7857 C.ar    1  UNL1       -0.0279
     30 C         138.8706  140.0783  166.2001 C.3     1  UNL1        0.0261
     31 C         138.2891  138.9169  166.9503 C.3     1  UNL1        0.0093
     32 C         138.1723  137.7626  165.9995 C.3     1  UNL1        0.0264
     33 C         138.6674  142.2289  163.6948 C.3     1  UNL1        0.0491
     34 C         138.2142  143.2664  162.7108 C.3     1  UNL1        0.0750
     35 N         138.7992  143.2966  161.3299 N.3     1  UNL1       -0.2702
     36 C         139.8260  144.3301  160.9728 C.3     1  UNL1        0.0897
     37 C         138.3575  142.2933  160.3061 C.3     1  UNL1        0.0897
@<TRIPOS>BOND
     1    13    14    1
     2    14     2    1
     3     2     3   ar
     4     3     4   ar
     5     4     5   ar
     6     5     6   ar
     7     6     7   ar
     8     7     8    1
     9     7     9   ar
    10     9    10   ar
    11    10    11   ar
    12    11    12   ar
    13     1    12    1
    14     1    15    1
    15    15    16   ar
    16    16    17   ar
    17    17    18   ar
    18    18    19   ar
    19    19    20   ar
    20     1    21    1
    21    21    22    1
    22    21    33    1
    23    33    34    1
    24    34    35    1
    25    35    36    1
    26    35    37    1
    27    21    24    1
    28    24    25   ar
    29    25    26   ar
    30    26    27   ar
    31    27    28   ar
    32    28    29   ar
    33    29    30    1
    34    30    31    1
    35    31    32    1
    36    12     2   ar
    37    20    15   ar
    38    29    24   ar
    39    10     4   ar
    40    32    28    1
    41    22    23    1
@<TRIPOS>MOLECULE
*****
 37 41 0 0 0
SMALL
GASTEIGER

@<TRIPOS>ATOM
      1 C         140.3703  141.5312  164.5504 C.3     1  UNL1        0.0760
      2 C         139.3400  143.6847  163.5253 C.ar    1  UNL1        0.1351
      3 C         139.2633  144.6840  162.4093 C.ar    1  UNL1        0.0366
      4 C         140.1403  144.5290  161.2022 C.ar    1  UNL1        0.0030
      5 C         140.0636  145.5283  160.0862 C.ar    1  UNL1        0.0006
      6 C         140.9405  145.3733  158.8792 C.ar    1  UNL1        0.0067
      7 C         141.8942  144.2190  158.7882 C.ar    1  UNL1        0.0346
      8 BR        142.7711  144.0640  157.5811 Br      1  UNL1       -0.0490
      9 C         141.9708  143.2197  159.9042 C.ar    1  UNL1        0.0067
     10 C         141.0939  143.3748  161.1112 C.ar    1  UNL1        0.0004
     11 C         141.1706  142.3755  162.2273 C.ar    1  UNL1       -0.0009
     12 C         140.2936  142.5305  163.4343 C.ar    1  UNL1        0.0181
     13 C         138.6249  145.0314  165.6290 C.3     1  UNL1        0.2525
     14 O         138.4630  143.8397  164.7324 O.3     1  UNL1       -0.4717
     15 C         139.9075  140.1218  164.3283 C.ar    1  UNL1       -0.0157
     16 C         139.2954  139.3466  165.4571 C.ar    1  UNL1       -0.0039
     17 C         138.8327  137.9372  165.2350 C.ar    1  UNL1       -0.0003
     18 C         138.9820  137.3029  163.8839 C.ar    1  UNL1       -0.0000
     19 C         139.5941  138.0781  162.7550 C.ar    1  UNL1       -0.0003
     20 C         140.0569  139.4875  162.9771 C.ar    1  UNL1       -0.0039
     21 C         140.9097  141.9414  165.8886 C.3     1  UNL1        0.1155
     22 O         139.5416  141.7930  166.4855 O.3     1  UNL1       -0.3820
     23 H         138.8936  142.2493  165.9262 H       1  UNL1        0.2107
     24 C         142.2777  142.0897  165.2917 C.ar    1  UNL1       -0.0019
     25 C         142.7711  143.4433  164.8740 C.ar    1  UNL1       -0.0024
     26 C         144.1392  143.5916  164.2771 C.ar    1  UNL1       -0.0006
     27 C         145.0139  142.3864  164.0979 C.ar    1  UNL1       -0.0046
     28 C         144.5207  141.0328  164.5155 C.ar    1  UNL1       -0.0264
     29 C         143.1525  140.8844  165.1125 C.ar    1  UNL1       -0.0279
     30 C         142.9392  139.4336  165.4278 C.3     1  UNL1        0.0261
     31 C         144.1755  138.6852  165.0258 C.3     1  UNL1        0.0093
     32 C         145.1529  139.6736  164.4620 C.3     1  UNL1        0.0264
     33 C         141.4490  142.3515  167.2268 C.3     1  UNL1        0.0491
     34 C         141.2849  141.4459  168.4112 C.3     1  UNL1        0.0750
     35 N         140.2314  141.7379  169.4384 N.3     1  UNL1       -0.2702
     36 C         140.1443  143.1018  170.0565 C.3     1  UNL1        0.0897
     37 C         139.2652  140.6660  169.8473 C.3     1  UNL1        0.0897
@<TRIPOS>BOND
     1    13    14    1
     2    14     2    1
     3     2     3   ar
     4     3     4   ar
     5     4     5   ar
     6     5     6   ar
     7     6     7   ar
     8     7     8    1
     9     7     9   ar
    10     9    10   ar
    11    10    11   ar
    12    11    12   ar
    13     1    12    1
    14     1    15    1
    15    15    16   ar
    16    16    17   ar
    17    17    18   ar
    18    18    19   ar
    19    19    20   ar
    20     1    21    1
    21    21    22    1
    22    21    33    1
    23    33    34    1
    24    34    35    1
    25    35    36    1
    26    35    37    1
    27    21    24    1
    28    24    25   ar
    29    25    26   ar
    30    26    27   ar
    31    27    28   ar
    32    28    29   ar
    33    29    30    1
    34    30    31    1
    35    31    32    1
    36    12     2   ar
    37    20    15   ar
    38    29    24   ar
    39    10     4   ar
    40    32    28    1
    41    22    23    1
@<TRIPOS>MOLECULE
*****
 37 41 0 0 0
SMALL
GASTEIGER

@<TRIPOS>ATOM
      1 C         141.9042  141.1590  164.2617 C.3     1  UNL1        0.0760
      2 C         142.9666  139.1104  163.0679 C.ar    1  UNL1        0.1351
      3 C         143.1262  138.2594  161.8431 C.ar    1  UNL1        0.0366
      4 C         142.3830  138.6059  160.5870 C.ar    1  UNL1        0.0030
      5 C         142.5426  137.7550  159.3621 C.ar    1  UNL1        0.0006
      6 C         141.7995  138.1015  158.1061 C.ar    1  UNL1        0.0067
      7 C         140.8968  139.2990  158.0749 C.ar    1  UNL1        0.0346
      8 BR        140.1536  139.6455  156.8188 Br      1  UNL1       -0.0490
      9 C         140.7372  140.1500  159.2998 C.ar    1  UNL1        0.0067
     10 C         141.4803  139.8035  160.5558 C.ar    1  UNL1        0.0004
     11 C         141.3207  140.6545  161.7807 C.ar    1  UNL1       -0.0009
     12 C         142.0638  140.3080  163.0367 C.ar    1  UNL1        0.0181
     13 C         145.1142  139.2513  164.5231 C.3     1  UNL1        0.2525
     14 O         143.7097  138.7639  164.3240 O.3     1  UNL1       -0.4717
     15 C         142.5609  142.5059  164.3299 C.ar    1  UNL1       -0.0157
     16 C         142.0930  143.6146  163.4346 C.ar    1  UNL1       -0.0039
     17 C         142.7496  144.9615  163.5028 C.ar    1  UNL1       -0.0003
     18 C         143.8743  145.1996  164.4664 C.ar    1  UNL1       -0.0000
     19 C         144.3423  144.0908  165.3617 C.ar    1  UNL1       -0.0003
     20 C         143.6856  142.7440  165.2935 C.ar    1  UNL1       -0.0039
     21 C         141.0880  140.6631  165.4183 C.3     1  UNL1        0.1155
     22 O         142.3438  140.2539  166.1291 O.3     1  UNL1       -0.3820
     23 H         142.9083  139.7486  165.5233 H       1  UNL1        0.2107
     24 C         139.8321  141.0723  164.7075 C.ar    1  UNL1       -0.0019
     25 C         139.1363  140.1045  163.7968 C.ar    1  UNL1       -0.0024
     26 C         137.8805  140.5137  163.0860 C.ar    1  UNL1       -0.0006
     27 C         137.3204  141.8908  163.2857 C.ar    1  UNL1       -0.0046
     28 C         138.0161  142.8586  164.1963 C.ar    1  UNL1       -0.0264
     29 C         139.2720  142.4494  164.9072 C.ar    1  UNL1       -0.0279
     30 C         139.7346  143.6105  165.7365 C.3     1  UNL1        0.0261
     31 C         138.7646  144.7374  165.5382 C.3     1  UNL1        0.0093
     32 C         137.7025  144.2727  164.5863 C.3     1  UNL1        0.0264
     33 C         140.2717  140.1672  166.5749 C.3     1  UNL1        0.0491
     34 C         140.8681  140.1258  167.9506 C.3     1  UNL1        0.0750
     35 N         140.7398  141.3121  168.8597 N.3     1  UNL1       -0.2702
     36 C         139.6665  141.3417  169.9071 C.3     1  UNL1        0.0897
     37 C         141.6849  142.4686  168.7213 C.3     1  UNL1        0.0897
@<TRIPOS>BOND
     1    13    14    1
     2    14     2    1
     3     2     3   ar
     4     3     4   ar
     5     4     5   ar
     6     5     6   ar
     7     6     7   ar
     8     7     8    1
     9     7     9   ar
    10     9    10   ar
    11    10    11   ar
    12    11    12   ar
    13     1    12    1
    14     1    15    1
    15    15    16   ar
    16    16    17   ar
    17    17    18   ar
    18    18    19   ar
    19    19    20   ar
    20     1    21    1
    21    21    22    1
    22    21    33    1
    23    33    34    1
    24    34    35    1
    25    35    36    1
    26    35    37    1
    27    21    24    1
    28    24    25   ar
    29    25    26   ar
    30    26    27   ar
    31    27    28   ar
    32    28    29   ar
    33    29    30    1
    34    30    31    1
    35    31    32    1
    36    12     2   ar
    37    20    15   ar
    38    29    24   ar
    39    10     4   ar
    40    32    28    1
    41    22    23    1
@<TRIPOS>MOLECULE
*****
 37 41 0 0 0
SMALL
GASTEIGER

@<TRIPOS>ATOM
      1 C         140.3042  140.4789  164.1029 C.3     1  UNL1        0.0760
      2 C         141.7097  139.9152  161.9917 C.ar    1  UNL1        0.1351
      3 C         141.8221  139.7906  160.5012 C.ar    1  UNL1        0.0366
      4 C         140.6414  140.1053  159.6311 C.ar    1  UNL1        0.0030
      5 C         140.7538  139.9807  158.1405 C.ar    1  UNL1        0.0006
      6 C         139.5731  140.2953  157.2705 C.ar    1  UNL1        0.0067
      7 C         138.2800  140.7345  157.8910 C.ar    1  UNL1        0.0346
      8 BR        137.0993  141.0491  157.0209 Br      1  UNL1       -0.0490
      9 C         138.1676  140.8590  159.3816 C.ar    1  UNL1        0.0067
     10 C         139.3483  140.5444  160.2516 C.ar    1  UNL1        0.0004
     11 C         139.2359  140.6690  161.7423 C.ar    1  UNL1       -0.0009
     12 C         140.4166  140.3544  162.6123 C.ar    1  UNL1        0.0181
     13 C         143.9472  138.6524  162.3779 C.3     1  UNL1        0.2525
     14 O         142.8904  139.6006  162.8618 O.3     1  UNL1       -0.4717
     15 C         139.5068  139.4749  164.8814 C.ar    1  UNL1       -0.0157
     16 C         138.7816  139.8950  166.1254 C.ar    1  UNL1       -0.0039
     17 C         137.9842  138.8910  166.9039 C.ar    1  UNL1       -0.0003
     18 C         137.9118  137.4669  166.4384 C.ar    1  UNL1       -0.0000
     19 C         138.6370  137.0468  165.1943 C.ar    1  UNL1       -0.0003
     20 C         139.4344  138.0508  164.4158 C.ar    1  UNL1       -0.0039
     21 C         140.9893  141.6074  164.8150 C.3     1  UNL1        0.1155
     22 O         141.9613  140.6370  165.4179 O.3     1  UNL1       -0.3820
     23 H         141.4766  139.8861  165.7950 H       1  UNL1        0.2107
     24 C         140.0174  142.5779  164.2121 C.ar    1  UNL1       -0.0019
     25 C         138.6486  142.7348  164.8053 C.ar    1  UNL1       -0.0024
     26 C         137.6766  143.7052  164.2025 C.ar    1  UNL1       -0.0006
     27 C         138.0734  144.5188  163.0064 C.ar    1  UNL1       -0.0046
     28 C         139.4421  144.3620  162.4132 C.ar    1  UNL1       -0.0264
     29 C         140.4142  143.3915  163.0161 C.ar    1  UNL1       -0.0279
     30 C         141.6840  143.4522  162.2199 C.3     1  UNL1        0.0261
     31 C         141.4968  144.4602  161.1249 C.3     1  UNL1        0.0093
     32 C         140.1112  145.0225  161.2444 C.3     1  UNL1        0.0264
     33 C         141.6744  142.7359  165.5271 C.3     1  UNL1        0.0491
     34 C         143.1411  142.6514  165.8298 C.3     1  UNL1        0.0750
     35 N         144.1434  143.1403  164.8265 N.3     1  UNL1       -0.2702
     36 C         144.1656  144.5875  164.4325 C.3     1  UNL1        0.0897
     37 C         145.1234  142.1821  164.2171 C.3     1  UNL1        0.0897
@<TRIPOS>BOND
     1    13    14    1
     2    14     2    1
     3     2     3   ar
     4     3     4   ar
     5     4     5   ar
     6     5     6   ar
     7     6     7   ar
     8     7     8    1
     9     7     9   ar
    10     9    10   ar
    11    10    11   ar
    12    11    12   ar
    13     1    12    1
    14     1    15    1
    15    15    16   ar
    16    16    17   ar
    17    17    18   ar
    18    18    19   ar
    19    19    20   ar
    20     1    21    1
    21    21    22    1
    22    21    33    1
    23    33    34    1
    24    34    35    1
    25    35    36    1
    26    35    37    1
    27    21    24    1
    28    24    25   ar
    29    25    26   ar
    30    26    27   ar
    31    27    28   ar
    32    28    29   ar
    33    29    30    1
    34    30    31    1
    35    31    32    1
    36    12     2   ar
    37    20    15   ar
    38    29    24   ar
    39    10     4   ar
    40    32    28    1
    41    22    23    1
