@<TRIPOS>MOLECULE
*****
 22 24 0 0 0
SMALL
GASTEIGER

@<TRIPOS>ATOM
      1 C         141.8639  140.7244  167.0886 C.3     1  UNL1        0.0323
      2 C         140.7438  139.8747  166.5658 C.ar    1  UNL1       -0.0085
      3 C         139.4385  139.8178  167.3028 C.ar    1  UNL1       -0.0030
      4 C         138.3184  138.9681  166.7799 C.ar    1  UNL1       -0.0006
      5 C         138.5036  138.1752  165.5202 C.ar    1  UNL1       -0.0031
      6 C         139.8088  138.2320  164.7832 C.ar    1  UNL1       -0.0087
      7 C         140.9289  139.0818  165.3061 C.ar    1  UNL1        0.0458
      8 N         142.2342  139.1386  164.5691 N.am    1  UNL1       -0.2585
      9 C         143.3543  139.9884  165.0919 C.2     1  UNL1        0.2407
     10 O         143.1691  140.7813  166.3517 O.2     1  UNL1       -0.2736
     11 C         142.4193  138.3457  163.3093 C.3     1  UNL1        0.0985
     12 C         141.2992  137.4960  162.7865 C.3     1  UNL1        0.0266
     13 C         139.9940  137.4391  163.5234 C.3     1  UNL1        0.0294
     14 C         144.6595  140.0452  164.3549 C.3     1  UNL1        0.1489
     15 S         145.2456  141.3709  163.9688 S.3     1  UNL1       -0.0843
     16 C         144.3492  142.4812  163.5066 C.ar    1  UNL1        0.1176
     17 N         143.6781  142.3954  162.1678 N.ar    1  UNL1       -0.2368
     18 C         142.7817  143.5057  161.7056 C.ar    1  UNL1        0.0995
     19 C         142.5564  144.7018  162.5822 C.ar    1  UNL1        0.0216
     20 C         143.2275  144.7877  163.9210 C.ar    1  UNL1        0.0150
     21 C         144.1239  143.6774  164.3832 C.ar    1  UNL1        0.0811
     22 CL        144.7950  143.7633  165.7219 Cl      1  UNL1       -0.0801
@<TRIPOS>BOND
     1     1     2    1
     2     2     3   ar
     3     3     4   ar
     4     4     5   ar
     5     5     6   ar
     6     6     7   ar
     7     7     8    1
     8     8     9   am
     9     9    10    2
    10     9    14    1
    11    14    15    1
    12    15    16    1
    13    16    17   ar
    14    17    18   ar
    15    18    19   ar
    16    19    20   ar
    17    20    21   ar
    18    21    22    1
    19     8    11    1
    20    11    12    1
    21    12    13    1
    22     7     2   ar
    23    21    16   ar
    24    13     6    1
@<TRIPOS>MOLECULE
*****
 22 24 0 0 0
SMALL
GASTEIGER

@<TRIPOS>ATOM
      1 C         137.9695  140.5010  162.8046 C.3     1  UNL1        0.0323
      2 C         138.2468  141.7805  163.5366 C.ar    1  UNL1       -0.0085
      3 C         137.6257  143.0627  163.0675 C.ar    1  UNL1       -0.0030
      4 C         137.9031  144.3423  163.7995 C.ar    1  UNL1       -0.0006
      5 C         138.8014  144.3396  165.0007 C.ar    1  UNL1       -0.0031
      6 C         139.4225  143.0574  165.4698 C.ar    1  UNL1       -0.0087
      7 C         139.1452  141.7779  164.7378 C.ar    1  UNL1        0.0458
      8 N         139.7663  140.4956  165.2070 N.am    1  UNL1       -0.2585
      9 C         139.4890  139.2160  164.4749 C.2     1  UNL1        0.2407
     10 O         138.5906  139.2188  163.2737 O.2     1  UNL1       -0.2736
     11 C         140.6647  140.4929  166.4081 C.3     1  UNL1        0.0985
     12 C         140.9420  141.7725  167.1402 C.3     1  UNL1        0.0266
     13 C         140.3210  143.0547  166.6710 C.3     1  UNL1        0.0294
     14 C         140.1101  137.9338  164.9441 C.3     1  UNL1        0.1489
     15 S         141.3436  137.4079  164.2718 S.3     1  UNL1       -0.0843
     16 C         142.4338  138.3524  163.8599 C.ar    1  UNL1        0.1176
     17 N         142.4524  138.9159  162.4699 N.ar    1  UNL1       -0.2368
     18 C         143.5425  139.8603  162.0580 C.ar    1  UNL1        0.0995
     19 C         144.6140  140.2411  163.0361 C.ar    1  UNL1        0.0216
     20 C         144.5954  139.6776  164.4261 C.ar    1  UNL1        0.0150
     21 C         143.5053  138.7332  164.8380 C.ar    1  UNL1        0.0811
     22 CL        143.4867  138.1697  166.2280 Cl      1  UNL1       -0.0801
@<TRIPOS>BOND
     1     1     2    1
     2     2     3   ar
     3     3     4   ar
     4     4     5   ar
     5     5     6   ar
     6     6     7   ar
     7     7     8    1
     8     8     9   am
     9     9    10    2
    10     9    14    1
    11    14    15    1
    12    15    16    1
    13    16    17   ar
    14    17    18   ar
    15    18    19   ar
    16    19    20   ar
    17    20    21   ar
    18    21    22    1
    19     8    11    1
    20    11    12    1
    21    12    13    1
    22     7     2   ar
    23    21    16   ar
    24    13     6    1
@<TRIPOS>MOLECULE
*****
 22 24 0 0 0
SMALL
GASTEIGER

@<TRIPOS>ATOM
      1 C         142.5410  138.2169  162.2542 C.3     1  UNL1        0.0323
      2 C         141.4055  138.2754  163.2325 C.ar    1  UNL1       -0.0085
      3 C         140.1171  137.5698  162.9293 C.ar    1  UNL1       -0.0030
      4 C         138.9816  137.6283  163.9077 C.ar    1  UNL1       -0.0006
      5 C         139.1345  138.3924  165.1893 C.ar    1  UNL1       -0.0031
      6 C         140.4229  139.0980  165.4926 C.ar    1  UNL1       -0.0087
      7 C         141.5584  139.0395  164.5142 C.ar    1  UNL1        0.0458
      8 N         142.8469  139.7452  164.8175 N.am    1  UNL1       -0.2585
      9 C         143.9824  139.6867  163.8391 C.2     1  UNL1        0.2407
     10 O         143.8294  138.9225  162.5574 O.2     1  UNL1       -0.2736
     11 C         142.9998  140.5094  166.0992 C.3     1  UNL1        0.0985
     12 C         141.8643  140.5679  167.0775 C.3     1  UNL1        0.0266
     13 C         140.5759  139.8622  166.7743 C.3     1  UNL1        0.0294
     14 C         145.2708  140.3924  164.1424 C.3     1  UNL1        0.1489
     15 S         145.5865  141.6975  163.4738 S.3     1  UNL1       -0.0843
     16 C         144.4886  142.6789  163.1884 C.ar    1  UNL1        0.1176
     17 N         143.8136  142.6806  161.8489 N.ar    1  UNL1       -0.2368
     18 C         142.7158  143.6620  161.5634 C.ar    1  UNL1        0.0995
     19 C         142.2928  144.6416  162.6176 C.ar    1  UNL1        0.0216
     20 C         142.9677  144.6399  163.9572 C.ar    1  UNL1        0.0150
     21 C         144.0656  143.6586  164.2426 C.ar    1  UNL1        0.0811
     22 CL        144.7406  143.6569  165.5822 Cl      1  UNL1       -0.0801
@<TRIPOS>BOND
     1     1     2    1
     2     2     3   ar
     3     3     4   ar
     4     4     5   ar
     5     5     6   ar
     6     6     7   ar
     7     7     8    1
     8     8     9   am
     9     9    10    2
    10     9    14    1
    11    14    15    1
    12    15    16    1
    13    16    17   ar
    14    17    18   ar
    15    18    19   ar
    16    19    20   ar
    17    20    21   ar
    18    21    22    1
    19     8    11    1
    20    11    12    1
    21    12    13    1
    22     7     2   ar
    23    21    16   ar
    24    13     6    1
@<TRIPOS>MOLECULE
*****
 22 24 0 0 0
SMALL
GASTEIGER

@<TRIPOS>ATOM
      1 C         142.5691  141.4104  165.7258 C.3     1  UNL1        0.0323
      2 C         142.3286  142.7104  165.0171 C.ar    1  UNL1       -0.0085
      3 C         143.4873  143.5868  164.6442 C.ar    1  UNL1       -0.0030
      4 C         143.2469  144.8867  163.9354 C.ar    1  UNL1       -0.0006
      5 C         141.8477  145.3102  163.5996 C.ar    1  UNL1       -0.0031
      6 C         140.6889  144.4338  163.9725 C.ar    1  UNL1       -0.0087
      7 C         140.9294  143.1339  164.6813 C.ar    1  UNL1        0.0458
      8 N         139.7706  142.2574  165.0542 N.am    1  UNL1       -0.2585
      9 C         140.0110  140.9575  165.7629 C.2     1  UNL1        0.2407
     10 O         141.4103  140.5340  166.0988 O.2     1  UNL1       -0.2736
     11 C         138.3714  142.6809  164.7184 C.3     1  UNL1        0.0985
     12 C         138.1309  143.9808  164.0096 C.3     1  UNL1        0.0266
     13 C         139.2896  144.8573  163.6367 C.3     1  UNL1        0.0294
     14 C         138.8523  140.0810  166.1359 C.3     1  UNL1        0.1489
     15 S         138.6441  138.7730  165.4317 S.3     1  UNL1       -0.0843
     16 C         138.9855  138.6418  163.9769 C.ar    1  UNL1        0.1176
     17 N         138.1003  139.2664  162.9394 N.ar    1  UNL1       -0.2368
     18 C         138.4417  139.1352  161.4848 C.ar    1  UNL1        0.0995
     19 C         139.6683  138.3794  161.0675 C.ar    1  UNL1        0.0216
     20 C         140.5535  137.7548  162.1050 C.ar    1  UNL1        0.0150
     21 C         140.2121  137.8860  163.5596 C.ar    1  UNL1        0.0811
     22 CL        141.0974  137.2614  164.5971 Cl      1  UNL1       -0.0801
@<TRIPOS>BOND
     1     1     2    1
     2     2     3   ar
     3     3     4   ar
     4     4     5   ar
     5     5     6   ar
     6     6     7   ar
     7     7     8    1
     8     8     9   am
     9     9    10    2
    10     9    14    1
    11    14    15    1
    12    15    16    1
    13    16    17   ar
    14    17    18   ar
    15    18    19   ar
    16    19    20   ar
    17    20    21   ar
    18    21    22    1
    19     8    11    1
    20    11    12    1
    21    12    13    1
    22     7     2   ar
    23    21    16   ar
    24    13     6    1
@<TRIPOS>MOLECULE
*****
 22 24 0 0 0
SMALL
GASTEIGER

@<TRIPOS>ATOM
      1 C         139.3761  141.9052  165.4172 C.3     1  UNL1        0.0323
      2 C         139.9633  143.0673  164.6725 C.ar    1  UNL1       -0.0085
      3 C         139.0785  143.9528  163.8461 C.ar    1  UNL1       -0.0030
      4 C         139.6657  145.1150  163.1014 C.ar    1  UNL1       -0.0006
      5 C         141.1377  145.3917  163.1831 C.ar    1  UNL1       -0.0031
      6 C         142.0225  144.5062  164.0095 C.ar    1  UNL1       -0.0087
      7 C         141.4353  143.3440  164.7542 C.ar    1  UNL1        0.0458
      8 N         142.3202  142.4585  165.5806 N.am    1  UNL1       -0.2585
      9 C         141.7330  141.2963  166.3254 C.2     1  UNL1        0.2407
     10 O         140.2609  141.0197  166.2436 O.2     1  UNL1       -0.2736
     11 C         143.7921  142.7352  165.6624 C.3     1  UNL1        0.0985
     12 C         144.3793  143.8973  164.9176 C.3     1  UNL1        0.0266
     13 C         143.4945  144.7828  164.0912 C.3     1  UNL1        0.0294
     14 C         142.6178  140.4108  167.1518 C.3     1  UNL1        0.1489
     15 S         142.9242  139.0166  166.6911 S.3     1  UNL1       -0.0843
     16 C         142.5947  138.6009  165.2879 C.ar    1  UNL1        0.1176
     17 N         141.2939  137.9138  164.9952 N.ar    1  UNL1       -0.2368
     18 C         140.9645  137.4981  163.5921 C.ar    1  UNL1        0.0995
     19 C         141.9358  137.7696  162.4818 C.ar    1  UNL1        0.0216
     20 C         143.2366  138.4568  162.7746 C.ar    1  UNL1        0.0150
     21 C         143.5661  138.8724  164.1776 C.ar    1  UNL1        0.0811
     22 CL        144.8669  139.5596  164.4704 Cl      1  UNL1       -0.0801
@<TRIPOS>BOND
     1     1     2    1
     2     2     3   ar
     3     3     4   ar
     4     4     5   ar
     5     5     6   ar
     6     6     7   ar
     7     7     8    1
     8     8     9   am
     9     9    10    2
    10     9    14    1
    11    14    15    1
    12    15    16    1
    13    16    17   ar
    14    17    18   ar
    15    18    19   ar
    16    19    20   ar
    17    20    21   ar
    18    21    22    1
    19     8    11    1
    20    11    12    1
    21    12    13    1
    22     7     2   ar
    23    21    16   ar
    24    13     6    1
@<TRIPOS>MOLECULE
*****
 22 24 0 0 0
SMALL
GASTEIGER

@<TRIPOS>ATOM
      1 C         142.9433  143.2475  164.8648 C.3     1  UNL1        0.0323
      2 C         141.5446  143.5339  164.4047 C.ar    1  UNL1       -0.0085
      3 C         141.2306  144.8323  163.7224 C.ar    1  UNL1       -0.0030
      4 C         139.8319  145.1187  163.2623 C.ar    1  UNL1       -0.0006
      5 C         138.7472  144.1067  163.4845 C.ar    1  UNL1       -0.0031
      6 C         139.0613  142.8083  164.1668 C.ar    1  UNL1       -0.0087
      7 C         140.4600  142.5220  164.6269 C.ar    1  UNL1        0.0458
      8 N         140.7740  141.2235  165.3093 N.am    1  UNL1       -0.2585
      9 C         142.1727  140.9371  165.7694 C.2     1  UNL1        0.2407
     10 O         143.2573  141.9492  165.5471 O.2     1  UNL1       -0.2736
     11 C         139.6893  140.2115  165.5315 C.3     1  UNL1        0.0985
     12 C         138.2907  140.4979  165.0714 C.3     1  UNL1        0.0266
     13 C         137.9766  141.7963  164.3891 C.3     1  UNL1        0.0294
     14 C         142.4867  139.6388  166.4517 C.3     1  UNL1        0.1489
     15 S         142.5178  139.5671  167.9497 S.3     1  UNL1       -0.0843
     16 C         141.5825  140.4142  168.7607 C.ar    1  UNL1        0.1176
     17 N         140.2126  139.9055  169.0992 N.ar    1  UNL1       -0.2368
     18 C         139.2773  140.7525  169.9102 C.ar    1  UNL1        0.0995
     19 C         139.7118  142.1082  170.3826 C.ar    1  UNL1        0.0216
     20 C         141.0817  142.6169  170.0440 C.ar    1  UNL1        0.0150
     21 C         142.0171  141.7698  169.2331 C.ar    1  UNL1        0.0811
     22 CL        143.3870  142.2785  168.8945 Cl      1  UNL1       -0.0801
@<TRIPOS>BOND
     1     1     2    1
     2     2     3   ar
     3     3     4   ar
     4     4     5   ar
     5     5     6   ar
     6     6     7   ar
     7     7     8    1
     8     8     9   am
     9     9    10    2
    10     9    14    1
    11    14    15    1
    12    15    16    1
    13    16    17   ar
    14    17    18   ar
    15    18    19   ar
    16    19    20   ar
    17    20    21   ar
    18    21    22    1
    19     8    11    1
    20    11    12    1
    21    12    13    1
    22     7     2   ar
    23    21    16   ar
    24    13     6    1
@<TRIPOS>MOLECULE
*****
 22 24 0 0 0
SMALL
GASTEIGER

@<TRIPOS>ATOM
      1 C         142.4111  142.1409  167.3596 C.3     1  UNL1        0.0323
      2 C         141.2542  141.4660  168.0349 C.ar    1  UNL1       -0.0085
      3 C         141.0106  141.6816  169.4991 C.ar    1  UNL1       -0.0030
      4 C         139.8537  141.0068  170.1744 C.ar    1  UNL1       -0.0006
      5 C         138.9402  140.1163  169.3854 C.ar    1  UNL1       -0.0031
      6 C         139.1838  139.9007  167.9211 C.ar    1  UNL1       -0.0087
      7 C         140.3407  140.5756  167.2458 C.ar    1  UNL1        0.0458
      8 N         140.5842  140.3599  165.7815 N.am    1  UNL1       -0.2585
      9 C         141.7412  141.0348  165.1062 C.2     1  UNL1        0.2407
     10 O         142.6547  141.9253  165.8953 O.2     1  UNL1       -0.2736
     11 C         139.6708  139.4694  164.9924 C.3     1  UNL1        0.0985
     12 C         138.5138  138.7945  165.6677 C.3     1  UNL1        0.0266
     13 C         138.2703  139.0101  167.1320 C.3     1  UNL1        0.0294
     14 C         141.9847  140.8192  163.6420 C.3     1  UNL1        0.1489
     15 S         141.6073  141.8831  162.6542 S.3     1  UNL1       -0.0843
     16 C         140.3442  142.6694  162.8448 C.ar    1  UNL1        0.1176
     17 N         139.0304  142.0970  162.4018 N.ar    1  UNL1       -0.2368
     18 C         137.7672  142.8831  162.5924 C.ar    1  UNL1        0.0995
     19 C         137.8179  144.2418  163.2260 C.ar    1  UNL1        0.0216
     20 C         139.1317  144.8142  163.6690 C.ar    1  UNL1        0.0150
     21 C         140.3948  144.0280  163.4784 C.ar    1  UNL1        0.0811
     22 CL        141.7086  144.6005  163.9215 Cl      1  UNL1       -0.0801
@<TRIPOS>BOND
     1     1     2    1
     2     2     3   ar
     3     3     4   ar
     4     4     5   ar
     5     5     6   ar
     6     6     7   ar
     7     7     8    1
     8     8     9   am
     9     9    10    2
    10     9    14    1
    11    14    15    1
    12    15    16    1
    13    16    17   ar
    14    17    18   ar
    15    18    19   ar
    16    19    20   ar
    17    20    21   ar
    18    21    22    1
    19     8    11    1
    20    11    12    1
    21    12    13    1
    22     7     2   ar
    23    21    16   ar
    24    13     6    1
@<TRIPOS>MOLECULE
*****
 22 24 0 0 0
SMALL
GASTEIGER

@<TRIPOS>ATOM
      1 C         142.3984  143.2050  161.8751 C.3     1  UNL1        0.0323
      2 C         141.2828  143.6051  162.7944 C.ar    1  UNL1       -0.0085
      3 C         140.1557  144.4517  162.2819 C.ar    1  UNL1       -0.0030
      4 C         139.0401  144.8519  163.2013 C.ar    1  UNL1       -0.0006
      5 C         139.0516  144.4055  164.6332 C.ar    1  UNL1       -0.0031
      6 C         140.1788  143.5589  165.1458 C.ar    1  UNL1       -0.0087
      7 C         141.2944  143.1587  164.2264 C.ar    1  UNL1        0.0458
      8 N         142.4216  142.3121  164.7390 N.am    1  UNL1       -0.2585
      9 C         143.5372  141.9119  163.8197 C.2     1  UNL1        0.2407
     10 O         143.5256  142.3584  162.3876 O.2     1  UNL1       -0.2736
     11 C         142.4331  141.8657  166.1710 C.3     1  UNL1        0.0985
     12 C         141.3175  142.2659  167.0904 C.3     1  UNL1        0.0266
     13 C         140.1903  143.1124  166.5778 C.3     1  UNL1        0.0294
     14 C         144.6644  141.0654  164.3322 C.3     1  UNL1        0.1489
     15 S         144.7303  139.6094  163.9774 S.3     1  UNL1       -0.0843
     16 C         143.4658  138.8332  163.7569 C.ar    1  UNL1        0.1176
     17 N         142.9275  138.6553  162.3681 N.ar    1  UNL1       -0.2368
     18 C         141.6631  137.8791  162.1475 C.ar    1  UNL1        0.0995
     19 C         140.9369  137.2809  163.3157 C.ar    1  UNL1        0.0216
     20 C         141.4751  137.4588  164.7045 C.ar    1  UNL1        0.0150
     21 C         142.7396  138.2350  164.9250 C.ar    1  UNL1        0.0811
     22 CL        143.2778  138.4129  166.3138 Cl      1  UNL1       -0.0801
@<TRIPOS>BOND
     1     1     2    1
     2     2     3   ar
     3     3     4   ar
     4     4     5   ar
     5     5     6   ar
     6     6     7   ar
     7     7     8    1
     8     8     9   am
     9     9    10    2
    10     9    14    1
    11    14    15    1
    12    15    16    1
    13    16    17   ar
    14    17    18   ar
    15    18    19   ar
    16    19    20   ar
    17    20    21   ar
    18    21    22    1
    19     8    11    1
    20    11    12    1
    21    12    13    1
    22     7     2   ar
    23    21    16   ar
    24    13     6    1
@<TRIPOS>MOLECULE
*****
 22 24 0 0 0
SMALL
GASTEIGER

@<TRIPOS>ATOM
      1 C         138.1203  138.7945  167.3024 C.3     1  UNL1        0.0323
      2 C         138.9913  139.9342  167.7408 C.ar    1  UNL1       -0.0085
      3 C         139.1464  140.2411  169.2008 C.ar    1  UNL1       -0.0030
      4 C         140.0175  141.3809  169.6392 C.ar    1  UNL1       -0.0006
      5 C         140.7334  142.2137  168.6176 C.ar    1  UNL1       -0.0031
      6 C         140.5783  141.9068  167.1576 C.ar    1  UNL1       -0.0087
      7 C         139.7073  140.7671  166.7192 C.ar    1  UNL1        0.0458
      8 N         139.5522  140.4602  165.2591 N.am    1  UNL1       -0.2585
      9 C         138.6812  139.3204  164.8207 C.2     1  UNL1        0.2407
     10 O         137.9652  138.4875  165.8424 O.2     1  UNL1       -0.2736
     11 C         140.2682  141.2930  164.2375 C.3     1  UNL1        0.0985
     12 C         141.1392  142.4328  164.6759 C.3     1  UNL1        0.0266
     13 C         141.2943  142.7397  166.1359 C.3     1  UNL1        0.0294
     14 C         138.5261  139.0135  163.3607 C.3     1  UNL1        0.1489
     15 S         139.2370  137.8361  162.7621 S.3     1  UNL1       -0.0843
     16 C         140.5792  138.0187  162.1176 C.ar    1  UNL1        0.1176
     17 N         140.6722  138.3217  160.6515 N.ar    1  UNL1       -0.2368
     18 C         142.0143  138.5043  160.0070 C.ar    1  UNL1        0.0995
     19 C         143.2634  138.3839  160.8286 C.ar    1  UNL1        0.0216
     20 C         143.1704  138.0809  162.2948 C.ar    1  UNL1        0.0150
     21 C         141.8283  137.8983  162.9393 C.ar    1  UNL1        0.0811
     22 CL        141.7354  137.5953  164.4054 Cl      1  UNL1       -0.0801
@<TRIPOS>BOND
     1     1     2    1
     2     2     3   ar
     3     3     4   ar
     4     4     5   ar
     5     5     6   ar
     6     6     7   ar
     7     7     8    1
     8     8     9   am
     9     9    10    2
    10     9    14    1
    11    14    15    1
    12    15    16    1
    13    16    17   ar
    14    17    18   ar
    15    18    19   ar
    16    19    20   ar
    17    20    21   ar
    18    21    22    1
    19     8    11    1
    20    11    12    1
    21    12    13    1
    22     7     2   ar
    23    21    16   ar
    24    13     6    1
