@<TRIPOS>MOLECULE
*****
 37 40 0 0 0
SMALL
GASTEIGER

@<TRIPOS>ATOM
      1 S         138.5166  142.0247  164.2938 S.O2    1  UNL1        0.0736
      2 O         138.4585  140.6196  163.7721 O.2     1  UNL1       -0.1499
      3 O         138.5747  143.4298  164.8155 O.2     1  UNL1       -0.1499
      4 C         140.6610  140.5701  167.9728 C.ar    1  UNL1        0.0533
      5 C         139.6362  139.6993  167.3086 C.ar    1  UNL1        0.0161
      6 C         138.9214  140.1841  166.0823 C.ar    1  UNL1        0.0215
      7 C         139.2315  141.5399  165.5202 C.ar    1  UNL1        0.1253
      8 C         140.2563  142.4107  166.1844 C.ar    1  UNL1        0.0215
      9 C         140.9711  141.9258  167.4108 C.ar    1  UNL1        0.0161
     10 O         143.1127  138.8622  167.7034 O.2     1  UNL1       -0.2261
     11 C         142.6017  139.2313  169.0645 C.2     1  UNL1        0.4055
     12 N         141.3759  140.0852  169.1992 N.am    1  UNL1       -0.2499
     13 H         141.0405  140.3275  170.0926 H       1  UNL1        0.1582
     14 O         143.3165  138.7464  170.2909 O.3     1  UNL1       -0.4318
     15 C         143.3185  137.2851  170.6293 C.3     1  UNL1        0.2393
     16 C         144.4941  136.6813  171.3388 C.3     1  UNL1        0.1589
     17 C         144.6235  135.2507  171.7708 C.3     1  UNL1        0.0360
     18 C         145.9560  135.0872  172.4399 C.3     1  UNL1        0.0347
     19 C         146.6501  136.4169  172.4215 C.3     1  UNL1        0.1423
     20 O         145.7466  137.4020  171.7410 O.3     1  UNL1       -0.3524
     21 N         137.8018  142.5096  163.0675 N.pl3   1  UNL1       -0.2149
     22 H         137.0320  143.1171  163.1543 H       1  UNL1        0.1737
     23 C         138.2599  142.0689  161.7088 C.ar    1  UNL1        0.0679
     24 C         137.6971  140.8209  161.0958 C.ar    1  UNL1        0.0160
     25 C         138.1552  140.3803  159.7372 C.ar    1  UNL1        0.0013
     26 C         139.1761  141.1875  158.9915 C.ar    1  UNL1        0.0002
     27 C         139.7390  142.4356  159.6045 C.ar    1  UNL1        0.0045
     28 C         139.2809  142.8763  160.9631 C.ar    1  UNL1        0.0551
     29 C         139.8437  144.1242  161.5761 C.2     1  UNL1        0.2143
     30 O         139.1909  145.4490  161.3136 O.2     1  UNL1       -0.2849
     31 C         141.0592  144.0474  162.4516 C.ar    1  UNL1        0.1203
     32 C         141.7409  142.7300  162.6745 C.ar    1  UNL1        0.0247
     33 C         142.9565  142.6532  163.5501 C.ar    1  UNL1        0.0329
     34 C         143.4903  143.8938  164.2027 C.ar    1  UNL1        0.1592
     35 F         144.7058  143.8170  165.0782 F       1  UNL1       -0.2025
     36 C         142.8086  145.2112  163.9798 C.ar    1  UNL1        0.1285
     37 N         141.5931  145.2881  163.1043 N.ar    1  UNL1       -0.2383
@<TRIPOS>BOND
     1    10    11    2
     2    11    12   am
     3    12     4    1
     4     4     5   ar
     5     5     6   ar
     6     6     7   ar
     7     7     1    1
     8     1     2    2
     9     1     3    2
    10     1    21    1
    11    21    23    1
    12    23    24   ar
    13    24    25   ar
    14    25    26   ar
    15    26    27   ar
    16    27    28   ar
    17    28    29    1
    18    29    30    2
    19    29    31    1
    20    31    32   ar
    21    32    33   ar
    22    33    34   ar
    23    34    35    1
    24    34    36   ar
    25    36    37   ar
    26     7     8   ar
    27     8     9   ar
    28    11    14    1
    29    14    15    1
    30    15    16    1
    31    16    17    1
    32    17    18    1
    33    18    19    1
    34    19    20    1
    35     9     4   ar
    36    20    16    1
    37    28    23   ar
    38    37    31   ar
    39    12    13    1
    40    21    22    1
@<TRIPOS>MOLECULE
*****
 37 40 0 0 0
SMALL
GASTEIGER

@<TRIPOS>ATOM
      1 S         143.0292  141.6700  165.3011 S.O2    1  UNL1        0.0736
      2 O         143.4798  142.9765  165.8841 O.2     1  UNL1       -0.1499
      3 O         142.5785  140.3635  164.7180 O.2     1  UNL1       -0.1499
      4 C         142.7536  143.5793  161.2355 C.ar    1  UNL1        0.0533
      5 C         143.0655  144.4188  162.4388 C.ar    1  UNL1        0.0161
      6 C         143.1573  143.7824  163.7939 C.ar    1  UNL1        0.0215
      7 C         142.9373  142.3064  163.9458 C.ar    1  UNL1        0.1253
      8 C         142.6254  141.4669  162.7426 C.ar    1  UNL1        0.0215
      9 C         142.5336  142.1033  161.3874 C.ar    1  UNL1        0.0161
     10 O         140.1468  144.7234  160.2891 O.2     1  UNL1       -0.2261
     11 C         141.3584  144.7877  159.4071 C.2     1  UNL1        0.4055
     12 N         142.6618  144.2157  159.8803 N.am    1  UNL1       -0.2499
     13 H         143.4570  144.2579  159.3014 H       1  UNL1        0.1582
     14 O         141.2666  145.4242  158.0519 O.3     1  UNL1       -0.4318
     15 C         139.9248  145.6706  157.4284 C.3     1  UNL1        0.2393
     16 C         139.7757  146.7075  156.3548 C.3     1  UNL1        0.1589
     17 C         140.5149  146.7383  155.0500 C.3     1  UNL1        0.0360
     18 C         140.0573  147.9455  154.2863 C.3     1  UNL1        0.0347
     19 C         139.0352  148.6608  155.1192 C.3     1  UNL1        0.1423
     20 O         138.8611  147.8957  156.3976 O.3     1  UNL1       -0.3524
     21 N         143.1210  141.0335  166.6562 N.pl3   1  UNL1       -0.2149
     22 H         143.6121  140.1880  166.7707 H       1  UNL1        0.1737
     23 C         142.4645  141.6853  167.8370 C.ar    1  UNL1        0.0679
     24 C         143.3042  142.2776  168.9297 C.ar    1  UNL1        0.0160
     25 C         142.6477  142.9294  170.1104 C.ar    1  UNL1        0.0013
     26 C         141.1515  142.9889  170.1985 C.ar    1  UNL1        0.0002
     27 C         140.3117  142.3966  169.1057 C.ar    1  UNL1        0.0045
     28 C         140.9682  141.7448  167.9250 C.ar    1  UNL1        0.0551
     29 C         140.1285  141.1526  166.8323 C.2     1  UNL1        0.2143
     30 O         139.9710  139.6644  166.7304 O.2     1  UNL1       -0.2849
     31 C         139.4463  142.0486  165.8414 C.ar    1  UNL1        0.1203
     32 C         139.8309  143.4955  165.7497 C.ar    1  UNL1        0.0247
     33 C         139.1487  144.3915  164.7587 C.ar    1  UNL1        0.0329
     34 C         138.0819  143.8405  163.8596 C.ar    1  UNL1        0.1592
     35 F         137.3998  144.7365  162.8688 F       1  UNL1       -0.2025
     36 C         137.6974  142.3936  163.9514 C.ar    1  UNL1        0.1285
     37 N         138.3795  141.4976  164.9422 N.ar    1  UNL1       -0.2383
@<TRIPOS>BOND
     1    10    11    2
     2    11    12   am
     3    12     4    1
     4     4     5   ar
     5     5     6   ar
     6     6     7   ar
     7     7     1    1
     8     1     2    2
     9     1     3    2
    10     1    21    1
    11    21    23    1
    12    23    24   ar
    13    24    25   ar
    14    25    26   ar
    15    26    27   ar
    16    27    28   ar
    17    28    29    1
    18    29    30    2
    19    29    31    1
    20    31    32   ar
    21    32    33   ar
    22    33    34   ar
    23    34    35    1
    24    34    36   ar
    25    36    37   ar
    26     7     8   ar
    27     8     9   ar
    28    11    14    1
    29    14    15    1
    30    15    16    1
    31    16    17    1
    32    17    18    1
    33    18    19    1
    34    19    20    1
    35     9     4   ar
    36    20    16    1
    37    28    23   ar
    38    37    31   ar
    39    12    13    1
    40    21    22    1
@<TRIPOS>MOLECULE
*****
 37 40 0 0 0
SMALL
GASTEIGER

@<TRIPOS>ATOM
      1 S         141.0598  139.2063  165.7631 S.O2    1  UNL1        0.0736
      2 O         142.3576  138.7588  166.3676 O.2     1  UNL1       -0.1499
      3 O         139.7621  139.6539  165.1587 O.2     1  UNL1       -0.1499
      4 C         142.4623  137.8137  161.7204 C.ar    1  UNL1        0.0533
      5 C         141.0213  137.6609  162.1079 C.ar    1  UNL1        0.0161
      6 C         140.5539  138.1251  163.4555 C.ar    1  UNL1        0.0215
      7 C         141.5274  138.7421  164.4155 C.ar    1  UNL1        0.1253
      8 C         142.9683  138.8948  164.0280 C.ar    1  UNL1        0.0215
      9 C         143.4358  138.4306  162.6805 C.ar    1  UNL1        0.0161
     10 O         142.1845  139.6116  159.3349 O.2     1  UNL1       -0.2261
     11 C         142.7909  138.2484  159.1801 C.2     1  UNL1        0.4055
     12 N         142.9298  137.3494  160.3728 N.am    1  UNL1       -0.2499
     13 H         143.3279  136.4547  160.2712 H       1  UNL1        0.1582
     14 O         143.2585  137.7842  157.8325 O.3     1  UNL1       -0.4318
     15 C         142.5092  136.7044  157.1097 C.3     1  UNL1        0.2393
     16 C         143.1071  135.3350  156.9791 C.3     1  UNL1        0.1589
     17 C         143.3615  134.6027  155.6950 C.3     1  UNL1        0.0360
     18 C         143.9674  133.2725  156.0320 C.3     1  UNL1        0.0347
     19 C         144.0874  133.1827  157.5245 C.3     1  UNL1        0.1423
     20 O         143.5558  134.4574  158.1099 O.3     1  UNL1       -0.3524
     21 N         140.5923  139.6705  167.1106 N.pl3   1  UNL1       -0.2149
     22 H         139.6604  139.5164  167.3884 H       1  UNL1        0.1737
     23 C         141.5445  140.3697  168.0351 C.ar    1  UNL1        0.0679
     24 C         142.0879  139.6521  169.2349 C.ar    1  UNL1        0.0160
     25 C         143.0401  140.3512  170.1593 C.ar    1  UNL1        0.0013
     26 C         143.4489  141.7679  169.8839 C.ar    1  UNL1        0.0002
     27 C         142.9054  142.4855  168.6840 C.ar    1  UNL1        0.0045
     28 C         141.9532  141.7864  167.7596 C.ar    1  UNL1        0.0551
     29 C         141.4097  142.5040  166.5597 C.2     1  UNL1        0.2143
     30 O         139.9587  142.8802  166.5044 O.2     1  UNL1       -0.2849
     31 C         142.3172  142.8453  165.4152 C.ar    1  UNL1        0.1203
     32 C         141.8860  143.8523  164.3906 C.ar    1  UNL1        0.0247
     33 C         142.7936  144.1935  163.2460 C.ar    1  UNL1        0.0329
     34 C         144.1324  143.5278  163.1262 C.ar    1  UNL1        0.1592
     35 F         145.0399  143.8691  161.9817 F       1  UNL1       -0.2025
     36 C         144.5636  142.5208  164.1509 C.ar    1  UNL1        0.1285
     37 N         143.6561  142.1795  165.2954 N.ar    1  UNL1       -0.2383
@<TRIPOS>BOND
     1    10    11    2
     2    11    12   am
     3    12     4    1
     4     4     5   ar
     5     5     6   ar
     6     6     7   ar
     7     7     1    1
     8     1     2    2
     9     1     3    2
    10     1    21    1
    11    21    23    1
    12    23    24   ar
    13    24    25   ar
    14    25    26   ar
    15    26    27   ar
    16    27    28   ar
    17    28    29    1
    18    29    30    2
    19    29    31    1
    20    31    32   ar
    21    32    33   ar
    22    33    34   ar
    23    34    35    1
    24    34    36   ar
    25    36    37   ar
    26     7     8   ar
    27     8     9   ar
    28    11    14    1
    29    14    15    1
    30    15    16    1
    31    16    17    1
    32    17    18    1
    33    18    19    1
    34    19    20    1
    35     9     4   ar
    36    20    16    1
    37    28    23   ar
    38    37    31   ar
    39    12    13    1
    40    21    22    1
@<TRIPOS>MOLECULE
*****
 37 40 0 0 0
SMALL
GASTEIGER

@<TRIPOS>ATOM
      1 S         142.4868  144.1696  162.4310 S.O2    1  UNL1        0.0736
      2 O         141.9908  145.3338  163.2364 O.2     1  UNL1       -0.1499
      3 O         142.9828  143.0054  161.6257 O.2     1  UNL1       -0.1499
      4 C         143.0274  141.7859  166.2094 C.ar    1  UNL1        0.0533
      5 C         141.7553  142.5464  165.9779 C.ar    1  UNL1        0.0161
      6 C         141.5752  143.3409  164.7185 C.ar    1  UNL1        0.0215
      7 C         142.6671  143.3750  163.6905 C.ar    1  UNL1        0.1253
      8 C         143.9391  142.6146  163.9220 C.ar    1  UNL1        0.0215
      9 C         144.1193  141.8201  165.1815 C.ar    1  UNL1        0.0161
     10 O         142.1921  138.9059  166.2985 O.2     1  UNL1       -0.2261
     11 C         142.7900  139.5514  167.5134 C.2     1  UNL1        0.4055
     12 N         143.2076  140.9914  167.4689 N.am    1  UNL1       -0.2499
     13 H         143.6000  141.4150  168.2663 H       1  UNL1        0.1582
     14 O         142.9702  138.7568  168.7729 O.3     1  UNL1       -0.4318
     15 C         142.4567  139.2914  170.0769 C.3     1  UNL1        0.2393
     16 C         141.2004  140.1103  170.1091 C.3     1  UNL1        0.1589
     17 C         141.1197  141.5931  170.3207 C.3     1  UNL1        0.0360
     18 C         139.6736  141.9895  170.2777 C.3     1  UNL1        0.0347
     19 C         138.8606  140.7515  170.0395 C.3     1  UNL1        0.1423
     20 O         139.8042  139.5902  169.9354 O.3     1  UNL1       -0.3524
     21 N         142.3066  144.9641  161.1716 N.pl3   1  UNL1       -0.2149
     22 H         142.6599  145.8812  161.1133 H       1  UNL1        0.1737
     23 C         141.5882  144.3613  160.0009 C.ar    1  UNL1        0.0679
     24 C         142.3420  144.0334  158.7462 C.ar    1  UNL1        0.0160
     25 C         141.6236  143.4306  157.5755 C.ar    1  UNL1        0.0013
     26 C         140.1514  143.1558  157.6595 C.ar    1  UNL1        0.0002
     27 C         139.3975  143.4837  158.9142 C.ar    1  UNL1        0.0045
     28 C         140.1160  144.0865  160.0849 C.ar    1  UNL1        0.0551
     29 C         139.3622  144.4144  161.3396 C.2     1  UNL1        0.2143
     30 O         139.0020  145.8375  161.6479 O.2     1  UNL1       -0.2849
     31 C         138.9686  143.3193  162.2859 C.ar    1  UNL1        0.1203
     32 C         138.0565  143.6163  163.4391 C.ar    1  UNL1        0.0247
     33 C         137.6629  142.5210  164.3855 C.ar    1  UNL1        0.0329
     34 C         138.1815  141.1288  164.1787 C.ar    1  UNL1        0.1592
     35 F         137.7880  140.0337  165.1251 F       1  UNL1       -0.2025
     36 C         139.0937  140.8318  163.0256 C.ar    1  UNL1        0.1285
     37 N         139.4873  141.9270  162.0792 N.ar    1  UNL1       -0.2383
@<TRIPOS>BOND
     1    10    11    2
     2    11    12   am
     3    12     4    1
     4     4     5   ar
     5     5     6   ar
     6     6     7   ar
     7     7     1    1
     8     1     2    2
     9     1     3    2
    10     1    21    1
    11    21    23    1
    12    23    24   ar
    13    24    25   ar
    14    25    26   ar
    15    26    27   ar
    16    27    28   ar
    17    28    29    1
    18    29    30    2
    19    29    31    1
    20    31    32   ar
    21    32    33   ar
    22    33    34   ar
    23    34    35    1
    24    34    36   ar
    25    36    37   ar
    26     7     8   ar
    27     8     9   ar
    28    11    14    1
    29    14    15    1
    30    15    16    1
    31    16    17    1
    32    17    18    1
    33    18    19    1
    34    19    20    1
    35     9     4   ar
    36    20    16    1
    37    28    23   ar
    38    37    31   ar
    39    12    13    1
    40    21    22    1
@<TRIPOS>MOLECULE
*****
 37 40 0 0 0
SMALL
GASTEIGER

@<TRIPOS>ATOM
      1 S         140.1072  143.2101  165.5323 S.O2    1  UNL1        0.0736
      2 O         139.2064  144.3745  165.8198 O.2     1  UNL1       -0.1499
      3 O         141.0080  142.0457  165.2448 O.2     1  UNL1       -0.1499
      4 C         141.1508  145.0032  161.5391 C.ar    1  UNL1        0.0533
      5 C         142.0064  143.9166  162.1199 C.ar    1  UNL1        0.0161
      6 C         141.6585  143.3190  163.4510 C.ar    1  UNL1        0.0215
      7 C         140.4551  143.8078  164.2012 C.ar    1  UNL1        0.1253
      8 C         139.5995  144.8944  163.6203 C.ar    1  UNL1        0.0215
      9 C         139.9474  145.4921  162.2893 C.ar    1  UNL1        0.0161
     10 O         139.4484  144.4154  159.1398 O.2     1  UNL1       -0.2261
     11 C         140.6475  145.3070  159.0084 C.2     1  UNL1        0.4055
     12 N         141.4987  145.6009  160.2080 N.am    1  UNL1       -0.2499
     13 H         142.2857  146.1861  160.1217 H       1  UNL1        0.1582
     14 O         140.9954  145.9048  157.6773 O.3     1  UNL1       -0.4318
     15 C         139.9213  146.1401  156.6571 C.3     1  UNL1        0.2393
     16 C         139.3251  147.5072  156.4974 C.3     1  UNL1        0.1589
     17 C         139.2932  148.3130  155.2326 C.3     1  UNL1        0.0360
     18 C         138.6046  149.6124  155.5280 C.3     1  UNL1        0.0347
     19 C         138.2109  149.6097  156.9755 C.3     1  UNL1        0.1423
     20 O         138.6562  148.3086  157.5746 O.3     1  UNL1       -0.3524
     21 N         139.7594  142.6124  166.8633 N.pl3   1  UNL1       -0.2149
     22 H         138.8299  142.6383  167.1868 H       1  UNL1        0.1737
     23 C         140.8277  141.9751  167.7015 C.ar    1  UNL1        0.0679
     24 C         141.9478  142.8086  168.2498 C.ar    1  UNL1        0.0160
     25 C         143.0161  142.1713  169.0880 C.ar    1  UNL1        0.0013
     26 C         142.9644  140.7006  169.3779 C.ar    1  UNL1        0.0002
     27 C         141.8442  139.8670  168.8296 C.ar    1  UNL1        0.0045
     28 C         140.7759  140.5043  167.9914 C.ar    1  UNL1        0.0551
     29 C         139.6558  139.6708  167.4432 C.2     1  UNL1        0.2143
     30 O         138.4651  139.3576  168.3000 O.2     1  UNL1       -0.2849
     31 C         139.7265  139.1504  166.0381 C.ar    1  UNL1        0.1203
     32 C         138.5221  139.2295  165.1476 C.ar    1  UNL1        0.0247
     33 C         138.5928  138.7091  163.7425 C.ar    1  UNL1        0.0329
     34 C         139.8678  138.1096  163.2280 C.ar    1  UNL1        0.1592
     35 F         139.9385  137.5893  161.8229 F       1  UNL1       -0.2025
     36 C         141.0723  138.0305  164.1185 C.ar    1  UNL1        0.1285
     37 N         141.0016  138.5509  165.5236 N.ar    1  UNL1       -0.2383
@<TRIPOS>BOND
     1    10    11    2
     2    11    12   am
     3    12     4    1
     4     4     5   ar
     5     5     6   ar
     6     6     7   ar
     7     7     1    1
     8     1     2    2
     9     1     3    2
    10     1    21    1
    11    21    23    1
    12    23    24   ar
    13    24    25   ar
    14    25    26   ar
    15    26    27   ar
    16    27    28   ar
    17    28    29    1
    18    29    30    2
    19    29    31    1
    20    31    32   ar
    21    32    33   ar
    22    33    34   ar
    23    34    35    1
    24    34    36   ar
    25    36    37   ar
    26     7     8   ar
    27     8     9   ar
    28    11    14    1
    29    14    15    1
    30    15    16    1
    31    16    17    1
    32    17    18    1
    33    18    19    1
    34    19    20    1
    35     9     4   ar
    36    20    16    1
    37    28    23   ar
    38    37    31   ar
    39    12    13    1
    40    21    22    1
@<TRIPOS>MOLECULE
*****
 37 40 0 0 0
SMALL
GASTEIGER

@<TRIPOS>ATOM
      1 S         139.3303  142.5804  164.7685 S.O2    1  UNL1        0.0736
      2 O         138.2757  141.5234  164.9113 O.2     1  UNL1       -0.1499
      3 O         140.3849  143.6374  164.6256 O.2     1  UNL1       -0.1499
      4 C         141.9765  140.3269  167.6267 C.ar    1  UNL1        0.0533
      5 C         142.0932  141.8181  167.5136 C.ar    1  UNL1        0.0161
      6 C         141.2111  142.5692  166.5608 C.ar    1  UNL1        0.0215
      7 C         140.2124  141.8292  165.7212 C.ar    1  UNL1        0.1253
      8 C         140.0957  140.3381  165.8344 C.ar    1  UNL1        0.0215
      9 C         140.9778  139.5869  166.7871 C.ar    1  UNL1        0.0161
     10 O         140.9069  139.4535  170.2900 O.2     1  UNL1       -0.2261
     11 C         142.3238  139.1390  169.9111 C.2     1  UNL1        0.4055
     12 N         142.8586  139.5757  168.5795 N.am    1  UNL1       -0.2499
     13 H         143.7885  139.3693  168.3308 H       1  UNL1        0.1582
     14 O         143.2058  138.3878  170.8639 O.3     1  UNL1       -0.4318
     15 C         143.7753  137.0576  170.4687 C.3     1  UNL1        0.2393
     16 C         144.8519  136.4258  171.3003 C.3     1  UNL1        0.1589
     17 C         144.7148  135.1763  172.1188 C.3     1  UNL1        0.0360
     18 C         146.0329  134.9108  172.7838 C.3     1  UNL1        0.0347
     19 C         146.9847  135.9962  172.3761 C.3     1  UNL1        0.1423
     20 O         146.2548  136.9325  171.4593 O.3     1  UNL1       -0.3524
     21 N         138.4483  143.3316  163.8157 N.pl3   1  UNL1       -0.2149
     22 H         137.4968  143.4677  164.0289 H       1  UNL1        0.1737
     23 C         139.0160  143.8755  162.5383 C.ar    1  UNL1        0.0679
     24 C         139.4280  145.3153  162.4537 C.ar    1  UNL1        0.0160
     25 C         139.9956  145.8591  161.1762 C.ar    1  UNL1        0.0013
     26 C         140.1512  144.9632  159.9833 C.ar    1  UNL1        0.0002
     27 C         139.7392  143.5234  160.0678 C.ar    1  UNL1        0.0045
     28 C         139.1716  142.9795  161.3453 C.ar    1  UNL1        0.0551
     29 C         138.7595  141.5397  161.4299 C.2     1  UNL1        0.2143
     30 O         137.3425  141.1838  161.7695 O.2     1  UNL1       -0.2849
     31 C         139.7645  140.4558  161.1748 C.ar    1  UNL1        0.1203
     32 C         140.6445  139.9717  162.2889 C.ar    1  UNL1        0.0247
     33 C         141.6496  138.8877  162.0338 C.ar    1  UNL1        0.0329
     34 C         141.7746  138.2880  160.6647 C.ar    1  UNL1        0.1592
     35 F         142.7796  137.2041  160.4096 F       1  UNL1       -0.2025
     36 C         140.8946  138.7721  159.5505 C.ar    1  UNL1        0.1285
     37 N         139.8896  139.8560  159.8056 N.ar    1  UNL1       -0.2383
@<TRIPOS>BOND
     1    10    11    2
     2    11    12   am
     3    12     4    1
     4     4     5   ar
     5     5     6   ar
     6     6     7   ar
     7     7     1    1
     8     1     2    2
     9     1     3    2
    10     1    21    1
    11    21    23    1
    12    23    24   ar
    13    24    25   ar
    14    25    26   ar
    15    26    27   ar
    16    27    28   ar
    17    28    29    1
    18    29    30    2
    19    29    31    1
    20    31    32   ar
    21    32    33   ar
    22    33    34   ar
    23    34    35    1
    24    34    36   ar
    25    36    37   ar
    26     7     8   ar
    27     8     9   ar
    28    11    14    1
    29    14    15    1
    30    15    16    1
    31    16    17    1
    32    17    18    1
    33    18    19    1
    34    19    20    1
    35     9     4   ar
    36    20    16    1
    37    28    23   ar
    38    37    31   ar
    39    12    13    1
    40    21    22    1
@<TRIPOS>MOLECULE
*****
 37 40 0 0 0
SMALL
GASTEIGER

@<TRIPOS>ATOM
      1 S         139.0952  142.3195  161.5004 S.O2    1  UNL1        0.0736
      2 O         139.9301  141.5139  160.5496 O.2     1  UNL1       -0.1499
      3 O         138.2604  143.1250  162.4512 O.2     1  UNL1       -0.1499
      4 C         140.8273  140.0271  164.9637 C.ar    1  UNL1        0.0533
      5 C         139.4154  140.5295  165.0279 C.ar    1  UNL1        0.0161
      6 C         138.8381  141.2936  163.8735 C.ar    1  UNL1        0.0215
      7 C         139.6726  141.5553  162.6548 C.ar    1  UNL1        0.1253
      8 C         141.0845  141.0529  162.5907 C.ar    1  UNL1        0.0215
      9 C         141.6618  140.2888  163.7451 C.ar    1  UNL1        0.0161
     10 O         142.9879  141.2545  166.6446 O.2     1  UNL1       -0.2261
     11 C         142.4850  139.8766  166.9586 C.2     1  UNL1        0.4055
     12 N         141.4047  139.2629  166.1182 N.am    1  UNL1       -0.2499
     13 H         141.0746  138.3586  166.3243 H       1  UNL1        0.1582
     14 O         143.0624  139.1124  168.1131 O.3     1  UNL1       -0.4318
     15 C         142.5795  139.3818  169.5074 C.3     1  UNL1        0.2393
     16 C         141.3113  140.1525  169.7261 C.3     1  UNL1        0.1589
     17 C         141.2126  141.6119  170.0583 C.3     1  UNL1        0.0360
     18 C         139.7595  141.9604  170.1885 C.3     1  UNL1        0.0347
     19 C         138.9601  140.7164  169.9367 C.3     1  UNL1        0.1423
     20 O         139.9192  139.5990  169.6509 O.3     1  UNL1       -0.3524
     21 N         138.5178  143.0836  160.3460 N.pl3   1  UNL1       -0.2149
     22 H         137.5483  143.2484  160.3004 H       1  UNL1        0.1737
     23 C         139.4176  143.5967  159.2610 C.ar    1  UNL1        0.0679
     24 C         139.3455  143.0049  157.8846 C.ar    1  UNL1        0.0160
     25 C         140.2453  143.5180  156.7996 C.ar    1  UNL1        0.0013
     26 C         141.2171  144.6227  157.0910 C.ar    1  UNL1        0.0002
     27 C         141.2892  145.2145  158.4675 C.ar    1  UNL1        0.0045
     28 C         140.3895  144.7015  159.5525 C.ar    1  UNL1        0.0551
     29 C         140.4615  145.2932  160.9289 C.2     1  UNL1        0.2143
     30 O         139.4898  146.3599  161.3386 O.2     1  UNL1       -0.2849
     31 C         141.5054  144.8182  161.8957 C.ar    1  UNL1        0.1203
     32 C         141.2374  144.8635  163.3709 C.ar    1  UNL1        0.0247
     33 C         142.2814  144.3885  164.3377 C.ar    1  UNL1        0.0329
     34 C         143.5931  143.8682  163.8294 C.ar    1  UNL1        0.1592
     35 F         144.6369  143.3932  164.7962 F       1  UNL1       -0.2025
     36 C         143.8610  143.8228  162.3542 C.ar    1  UNL1        0.1285
     37 N         142.8172  144.2978  161.3874 N.ar    1  UNL1       -0.2383
@<TRIPOS>BOND
     1    10    11    2
     2    11    12   am
     3    12     4    1
     4     4     5   ar
     5     5     6   ar
     6     6     7   ar
     7     7     1    1
     8     1     2    2
     9     1     3    2
    10     1    21    1
    11    21    23    1
    12    23    24   ar
    13    24    25   ar
    14    25    26   ar
    15    26    27   ar
    16    27    28   ar
    17    28    29    1
    18    29    30    2
    19    29    31    1
    20    31    32   ar
    21    32    33   ar
    22    33    34   ar
    23    34    35    1
    24    34    36   ar
    25    36    37   ar
    26     7     8   ar
    27     8     9   ar
    28    11    14    1
    29    14    15    1
    30    15    16    1
    31    16    17    1
    32    17    18    1
    33    18    19    1
    34    19    20    1
    35     9     4   ar
    36    20    16    1
    37    28    23   ar
    38    37    31   ar
    39    12    13    1
    40    21    22    1
@<TRIPOS>MOLECULE
*****
 37 40 0 0 0
SMALL
GASTEIGER

@<TRIPOS>ATOM
      1 S         142.5644  142.5438  165.6273 S.O2    1  UNL1        0.0736
      2 O         143.9000  142.0467  165.1595 O.2     1  UNL1       -0.1499
      3 O         141.2288  143.0409  166.0952 O.2     1  UNL1       -0.1499
      4 C         141.9360  144.5842  161.6660 C.ar    1  UNL1        0.0533
      5 C         141.3583  145.1789  162.9160 C.ar    1  UNL1        0.0161
      6 C         141.5677  144.4988  164.2364 C.ar    1  UNL1        0.0215
      7 C         142.3549  143.2239  164.3068 C.ar    1  UNL1        0.1253
      8 C         142.9327  142.6292  163.0569 C.ar    1  UNL1        0.0215
      9 C         142.7232  143.3093  161.7365 C.ar    1  UNL1        0.0161
     10 O         139.3399  144.2480  160.2007 O.2     1  UNL1       -0.2261
     11 C         140.4285  145.0962  159.6129 C.2     1  UNL1        0.4055
     12 N         141.7265  145.2643  160.3455 N.am    1  UNL1       -0.2499
     13 H         142.4410  145.8210  159.9597 H       1  UNL1        0.1582
     14 O         140.2191  145.7763  158.2924 O.3     1  UNL1       -0.4318
     15 C         140.3158  144.9888  157.0194 C.3     1  UNL1        0.2393
     16 C         139.0731  144.6503  156.2507 C.3     1  UNL1        0.1589
     17 C         138.4523  145.4819  155.1677 C.3     1  UNL1        0.0360
     18 C         137.2285  144.7663  154.6776 C.3     1  UNL1        0.0347
     19 C         137.0930  143.4923  155.4578 C.3     1  UNL1        0.1423
     20 O         138.2331  143.4206  156.4300 O.3     1  UNL1       -0.3524
     21 N         142.7738  141.8637  166.9478 N.pl3   1  UNL1       -0.2149
     22 H         143.6865  141.6747  167.2648 H       1  UNL1        0.1737
     23 C         141.5927  141.4717  167.7852 C.ar    1  UNL1        0.0679
     24 C         141.2020  142.3065  168.9685 C.ar    1  UNL1        0.0160
     25 C         140.0209  141.9145  169.8059 C.ar    1  UNL1        0.0013
     26 C         139.2304  140.6876  169.4599 C.ar    1  UNL1        0.0002
     27 C         139.6210  139.8527  168.2765 C.ar    1  UNL1        0.0045
     28 C         140.8021  140.2447  167.4391 C.ar    1  UNL1        0.0551
     29 C         141.1928  139.4099  166.2557 C.2     1  UNL1        0.2143
     30 O         142.5439  138.7601  166.2095 O.2     1  UNL1       -0.2849
     31 C         140.2322  139.2248  165.1186 C.ar    1  UNL1        0.1203
     32 C         139.9388  137.8477  164.6012 C.ar    1  UNL1        0.0247
     33 C         138.9782  137.6627  163.4641 C.ar    1  UNL1        0.0329
     34 C         138.3111  138.8547  162.8444 C.ar    1  UNL1        0.1592
     35 F         137.3505  138.6696  161.7073 F       1  UNL1       -0.2025
     36 C         138.6044  140.2317  163.3618 C.ar    1  UNL1        0.1285
     37 N         139.5650  140.4168  164.4989 N.ar    1  UNL1       -0.2383
@<TRIPOS>BOND
     1    10    11    2
     2    11    12   am
     3    12     4    1
     4     4     5   ar
     5     5     6   ar
     6     6     7   ar
     7     7     1    1
     8     1     2    2
     9     1     3    2
    10     1    21    1
    11    21    23    1
    12    23    24   ar
    13    24    25   ar
    14    25    26   ar
    15    26    27   ar
    16    27    28   ar
    17    28    29    1
    18    29    30    2
    19    29    31    1
    20    31    32   ar
    21    32    33   ar
    22    33    34   ar
    23    34    35    1
    24    34    36   ar
    25    36    37   ar
    26     7     8   ar
    27     8     9   ar
    28    11    14    1
    29    14    15    1
    30    15    16    1
    31    16    17    1
    32    17    18    1
    33    18    19    1
    34    19    20    1
    35     9     4   ar
    36    20    16    1
    37    28    23   ar
    38    37    31   ar
    39    12    13    1
    40    21    22    1
@<TRIPOS>MOLECULE
*****
 37 40 0 0 0
SMALL
GASTEIGER

@<TRIPOS>ATOM
      1 S         139.9229  139.5264  165.6184 S.O2    1  UNL1        0.0736
      2 O         141.1672  139.0325  164.9418 O.2     1  UNL1       -0.1499
      3 O         138.6786  140.0202  166.2950 O.2     1  UNL1       -0.1499
      4 C         137.7978  139.6056  161.6526 C.ar    1  UNL1        0.0533
      5 C         138.6528  138.4299  162.0219 C.ar    1  UNL1        0.0161
      6 C         139.3612  138.4034  163.3438 C.ar    1  UNL1        0.0215
      7 C         139.2145  139.5528  164.2964 C.ar    1  UNL1        0.1253
      8 C         138.3594  140.7286  163.9271 C.ar    1  UNL1        0.0215
      9 C         137.6511  140.7550  162.6052 C.ar    1  UNL1        0.0161
     10 O         139.0387  141.0162  159.3137 O.2     1  UNL1       -0.2261
     11 C         137.7099  140.3373  159.1612 C.2     1  UNL1        0.4055
     12 N         137.0894  139.6321  160.3306 N.am    1  UNL1       -0.2499
     13 H         136.2172  139.1865  160.2305 H       1  UNL1        0.1582
     14 O         137.0015  140.3638  157.8392 O.3     1  UNL1       -0.4318
     15 C         137.7593  140.6983  156.5888 C.3     1  UNL1        0.2393
     16 C         137.8239  142.1177  156.1080 C.3     1  UNL1        0.1589
     17 C         136.6720  142.9258  155.5883 C.3     1  UNL1        0.0360
     18 C         137.1878  144.2857  155.2216 C.3     1  UNL1        0.0347
     19 C         138.6586  144.3181  155.5148 C.3     1  UNL1        0.1423
     20 O         139.0516  142.9782  156.0626 O.3     1  UNL1       -0.3524
     21 N         140.6312  139.4999  166.9403 N.pl3   1  UNL1       -0.2149
     22 H         141.2656  138.7752  167.1445 H       1  UNL1        0.1737
     23 C         140.3730  140.5776  167.9512 C.ar    1  UNL1        0.0679
     24 C         139.6065  140.2646  169.2020 C.ar    1  UNL1        0.0160
     25 C         139.3484  141.3423  170.2129 C.ar    1  UNL1        0.0013
     26 C         139.8567  142.7330  169.9731 C.ar    1  UNL1        0.0002
     27 C         140.6232  143.0460  168.7222 C.ar    1  UNL1        0.0045
     28 C         140.8814  141.9684  167.7113 C.ar    1  UNL1        0.0551
     29 C         141.6478  142.2814  166.4605 C.2     1  UNL1        0.2143
     30 O         142.9928  141.6588  166.2295 O.2     1  UNL1       -0.2849
     31 C         141.0693  143.2169  165.4408 C.ar    1  UNL1        0.1203
     32 C         139.6326  143.6369  165.5380 C.ar    1  UNL1        0.0247
     33 C         139.0541  144.5726  164.5182 C.ar    1  UNL1        0.0329
     34 C         139.9122  145.0881  163.4012 C.ar    1  UNL1        0.1592
     35 F         139.3337  146.0237  162.3814 F       1  UNL1       -0.2025
     36 C         141.3489  144.6681  163.3039 C.ar    1  UNL1        0.1285
     37 N         141.9275  143.7325  164.3237 N.ar    1  UNL1       -0.2383
@<TRIPOS>BOND
     1    10    11    2
     2    11    12   am
     3    12     4    1
     4     4     5   ar
     5     5     6   ar
     6     6     7   ar
     7     7     1    1
     8     1     2    2
     9     1     3    2
    10     1    21    1
    11    21    23    1
    12    23    24   ar
    13    24    25   ar
    14    25    26   ar
    15    26    27   ar
    16    27    28   ar
    17    28    29    1
    18    29    30    2
    19    29    31    1
    20    31    32   ar
    21    32    33   ar
    22    33    34   ar
    23    34    35    1
    24    34    36   ar
    25    36    37   ar
    26     7     8   ar
    27     8     9   ar
    28    11    14    1
    29    14    15    1
    30    15    16    1
    31    16    17    1
    32    17    18    1
    33    18    19    1
    34    19    20    1
    35     9     4   ar
    36    20    16    1
    37    28    23   ar
    38    37    31   ar
    39    12    13    1
    40    21    22    1
