@<TRIPOS>MOLECULE
*****
 34 37 0 0 0
SMALL
GASTEIGER

@<TRIPOS>ATOM
      1 N         142.4133  137.0297  158.3079 N.ar    1  UNL1       -0.2287
      2 C         143.1489  136.9171  159.6103 C.ar    1  UNL1        0.0990
      3 C         142.5291  137.8818  160.5775 C.ar    1  UNL1        0.0338
      4 C         141.4106  138.5905  159.8728 C.ar    1  UNL1        0.0981
      5 N         141.3390  138.0639  158.4701 N.ar    1  UNL1       -0.1680
      6 C         140.7908  139.5551  160.8400 C.3     1  UNL1        0.1414
      7 N         141.5264  139.4426  162.1424 N.am    1  UNL1       -0.2660
      8 C         141.2382  140.2266  163.3883 C.2     1  UNL1        0.2525
      9 O         142.0629  140.0049  164.6216 O.2     1  UNL1       -0.2698
     10 C         142.6007  138.4084  161.9801 C.3     1  UNL1        0.1236
     11 C         144.2249  132.7349  156.0116 C.3     1  UNL1        0.0311
     12 C         143.6073  134.0983  155.9138 C.ar    1  UNL1       -0.0204
     13 C         143.2777  134.6778  154.5700 C.ar    1  UNL1       -0.0042
     14 C         142.6601  136.0412  154.4722 C.ar    1  UNL1        0.0012
     15 C         142.3720  136.8251  155.7182 C.ar    1  UNL1        0.0191
     16 C         142.7015  136.2457  157.0620 C.ar    1  UNL1        0.0825
     17 C         143.3191  134.8823  157.1598 C.ar    1  UNL1        0.0149
     18 C         140.1255  141.2323  163.4010 C.ar    1  UNL1        0.0888
     19 C         140.3640  142.6213  162.8873 C.ar    1  UNL1        0.0259
     20 C         139.2512  143.6271  162.9000 C.ar    1  UNL1        0.1061
     21 C         137.8999  143.2439  163.4264 C.ar    1  UNL1        0.0215
     22 C         137.6613  141.8549  163.9401 C.ar    1  UNL1        0.0384
     23 C         138.7741  140.8492  163.9274 C.ar    1  UNL1        0.1432
     24 S         139.4898  145.0160  162.3863 S.O2    1  UNL1        0.0105
     25 C         139.7284  146.4050  161.8726 C.3     1  UNL1        0.1816
     26 O         138.0089  145.2417  162.3087 O.2     1  UNL1       -0.1686
     27 O         140.9707  144.7904  162.4640 O.2     1  UNL1       -0.1686
     28 O         138.5355  139.4602  164.4411 O.3     1  UNL1       -0.4702
     29 C         138.6269  139.1784  165.9115 C.3     1  UNL1        0.2599
     30 C         139.3360  140.1412  166.8171 C.3     1  UNL1        0.0566
     31 C         138.0092  137.9337  166.4764 C.3     1  UNL1        0.4340
     32 F         137.3915  136.6889  167.0412 F       1  UNL1       -0.1664
     33 F         137.2763  138.7585  167.4925 F       1  UNL1       -0.1664
     34 F         138.7421  137.1088  165.4602 F       1  UNL1       -0.1664
@<TRIPOS>BOND
     1    11    12    1
     2    12    13   ar
     3    13    14   ar
     4    14    15   ar
     5    15    16   ar
     6    16     1    1
     7     1     2   ar
     8     2     3   ar
     9     3     4   ar
    10     4     5   ar
    11     4     6    1
    12     6     7    1
    13     7     8   am
    14     8     9    2
    15     8    18    1
    16    18    19   ar
    17    19    20   ar
    18    20    24    1
    19    24    25    1
    20    24    26    2
    21    24    27    2
    22    20    21   ar
    23    21    22   ar
    24    22    23   ar
    25    23    28    1
    26    28    29    1
    27    29    30    1
    28    29    31    1
    29    31    32    1
    30    31    33    1
    31    31    34    1
    32     7    10    1
    33    16    17   ar
    34    17    12   ar
    35     5     1   ar
    36    23    18   ar
    37    10     3    1
@<TRIPOS>MOLECULE
*****
 34 37 0 0 0
SMALL
GASTEIGER

@<TRIPOS>ATOM
      1 N         141.9065  143.5064  160.2339 N.ar    1  UNL1       -0.2287
      2 C         142.9244  142.4159  160.3910 C.ar    1  UNL1        0.0990
      3 C         142.8643  141.9264  161.8076 C.ar    1  UNL1        0.0338
      4 C         141.8093  142.7144  162.5260 C.ar    1  UNL1        0.0981
      5 N         141.2174  143.6909  161.5534 N.ar    1  UNL1       -0.1680
      6 C         141.7492  142.2249  163.9426 C.3     1  UNL1        0.1414
      7 N         142.7671  141.1343  164.0998 N.am    1  UNL1       -0.2660
      8 C         143.0467  140.3636  165.3558 C.2     1  UNL1        0.2525
      9 O         144.1002  139.2958  165.3618 O.2     1  UNL1       -0.2698
     10 C         143.4563  140.9499  162.7802 C.3     1  UNL1        0.1236
     11 C         142.8952  144.4543  155.2215 C.3     1  UNL1        0.0311
     12 C         142.1212  144.7512  156.4716 C.ar    1  UNL1       -0.0204
     13 C         141.0675  145.8188  156.4657 C.ar    1  UNL1       -0.0042
     14 C         140.2936  146.1156  157.7158 C.ar    1  UNL1        0.0012
     15 C         140.5733  145.3448  158.9719 C.ar    1  UNL1        0.0191
     16 C         141.6269  144.2772  158.9778 C.ar    1  UNL1        0.0825
     17 C         142.4009  143.9803  157.7277 C.ar    1  UNL1        0.0149
     18 C         142.2729  140.6606  166.6060 C.ar    1  UNL1        0.0888
     19 C         142.8540  141.5675  167.6500 C.ar    1  UNL1        0.0259
     20 C         142.0801  141.8645  168.9003 C.ar    1  UNL1        0.1061
     21 C         140.7253  141.2547  169.1064 C.ar    1  UNL1        0.0215
     22 C         140.1442  140.3479  168.0624 C.ar    1  UNL1        0.0384
     23 C         140.9180  140.0509  166.8122 C.ar    1  UNL1        0.1432
     24 S         142.6613  142.7713  169.9443 S.O2    1  UNL1        0.0105
     25 C         143.2426  143.6782  170.9882 C.3     1  UNL1        0.1816
     26 O         144.0218  142.5993  169.3363 O.2     1  UNL1       -0.1686
     27 O         141.3009  142.9435  170.5523 O.2     1  UNL1       -0.1686
     28 O         140.3370  139.1440  165.7682 O.3     1  UNL1       -0.4702
     29 C         138.8491  139.0402  165.6089 C.3     1  UNL1        0.2599
     30 C         138.1043  140.0801  164.8254 C.3     1  UNL1        0.0566
     31 C         138.1060  137.8964  166.2330 C.3     1  UNL1        0.4340
     32 F         137.3630  136.7526  166.8571 F       1  UNL1       -0.1664
     33 F         137.3373  138.8614  167.0862 F       1  UNL1       -0.1664
     34 F         138.8747  136.9314  165.3797 F       1  UNL1       -0.1664
@<TRIPOS>BOND
     1    11    12    1
     2    12    13   ar
     3    13    14   ar
     4    14    15   ar
     5    15    16   ar
     6    16     1    1
     7     1     2   ar
     8     2     3   ar
     9     3     4   ar
    10     4     5   ar
    11     4     6    1
    12     6     7    1
    13     7     8   am
    14     8     9    2
    15     8    18    1
    16    18    19   ar
    17    19    20   ar
    18    20    24    1
    19    24    25    1
    20    24    26    2
    21    24    27    2
    22    20    21   ar
    23    21    22   ar
    24    22    23   ar
    25    23    28    1
    26    28    29    1
    27    29    30    1
    28    29    31    1
    29    31    32    1
    30    31    33    1
    31    31    34    1
    32     7    10    1
    33    16    17   ar
    34    17    12   ar
    35     5     1   ar
    36    23    18   ar
    37    10     3    1
@<TRIPOS>MOLECULE
*****
 34 37 0 0 0
SMALL
GASTEIGER

@<TRIPOS>ATOM
      1 N         142.9516  141.6889  159.7411 N.ar    1  UNL1       -0.2287
      2 C         141.6697  142.4679  159.7504 C.ar    1  UNL1        0.0990
      3 C         141.0676  142.3530  161.1195 C.ar    1  UNL1        0.0338
      4 C         141.9772  141.5030  161.9562 C.ar    1  UNL1        0.0981
      5 N         143.1416  141.0926  161.1043 N.ar    1  UNL1       -0.1680
      6 C         141.3751  141.3881  163.3252 C.3     1  UNL1        0.1414
      7 N         140.0932  142.1671  163.3346 N.am    1  UNL1       -0.2660
      8 C         139.1645  142.3224  164.5022 C.2     1  UNL1        0.2525
      9 O         137.9122  143.1362  164.3614 O.2     1  UNL1       -0.2698
     10 C         139.9032  142.7634  161.9714 C.3     1  UNL1        0.1236
     11 C         144.4398  139.1011  155.4880 C.3     1  UNL1        0.0311
     12 C         144.6245  140.2397  156.4470 C.ar    1  UNL1       -0.0204
     13 C         145.7379  141.2229  156.2383 C.ar    1  UNL1       -0.0042
     14 C         145.9226  142.3614  157.1972 C.ar    1  UNL1        0.0012
     15 C         144.9938  142.5167  158.3648 C.ar    1  UNL1        0.0191
     16 C         143.8803  141.5335  158.5735 C.ar    1  UNL1        0.0825
     17 C         143.6956  140.3950  157.6145 C.ar    1  UNL1        0.0149
     18 C         139.4879  141.6641  165.8106 C.ar    1  UNL1        0.0888
     19 C         140.3271  142.3832  166.8248 C.ar    1  UNL1        0.0259
     20 C         140.6506  141.7248  168.1332 C.ar    1  UNL1        0.1061
     21 C         140.1348  140.3474  168.4275 C.ar    1  UNL1        0.0215
     22 C         139.2956  139.6282  167.4132 C.ar    1  UNL1        0.0384
     23 C         138.9722  140.2866  166.1048 C.ar    1  UNL1        0.1432
     24 S         141.4898  142.4440  169.1474 S.O2    1  UNL1        0.0105
     25 C         142.3291  143.1632  170.1615 C.3     1  UNL1        0.1816
     26 O         142.5037  141.3400  169.0912 O.2     1  UNL1       -0.1686
     27 O         140.4759  143.5480  169.2036 O.2     1  UNL1       -0.1686
     28 O         138.1330  139.5674  165.0906 O.3     1  UNL1       -0.4702
     29 C         138.7882  138.7254  164.0363 C.3     1  UNL1        0.2599
     30 C         138.4406  138.9281  162.5913 C.3     1  UNL1        0.0566
     31 C         139.7911  137.6806  164.4270 C.3     1  UNL1        0.4340
     32 F         140.7940  136.6358  164.8176 F       1  UNL1       -0.1664
     33 F         138.7907  137.0705  165.3635 F       1  UNL1       -0.1664
     34 F         140.7915  138.2907  163.4904 F       1  UNL1       -0.1664
@<TRIPOS>BOND
     1    11    12    1
     2    12    13   ar
     3    13    14   ar
     4    14    15   ar
     5    15    16   ar
     6    16     1    1
     7     1     2   ar
     8     2     3   ar
     9     3     4   ar
    10     4     5   ar
    11     4     6    1
    12     6     7    1
    13     7     8   am
    14     8     9    2
    15     8    18    1
    16    18    19   ar
    17    19    20   ar
    18    20    24    1
    19    24    25    1
    20    24    26    2
    21    24    27    2
    22    20    21   ar
    23    21    22   ar
    24    22    23   ar
    25    23    28    1
    26    28    29    1
    27    29    30    1
    28    29    31    1
    29    31    32    1
    30    31    33    1
    31    31    34    1
    32     7    10    1
    33    16    17   ar
    34    17    12   ar
    35     5     1   ar
    36    23    18   ar
    37    10     3    1
@<TRIPOS>MOLECULE
*****
 34 37 0 0 0
SMALL
GASTEIGER

@<TRIPOS>ATOM
      1 N         141.1669  137.7066  157.7599 N.ar    1  UNL1       -0.2287
      2 C         139.7516  138.2015  157.8019 C.ar    1  UNL1        0.0990
      3 C         139.5854  139.0254  159.0443 C.ar    1  UNL1        0.0338
      4 C         140.8980  139.0397  159.7701 C.ar    1  UNL1        0.0981
      5 N         141.8755  138.2246  158.9763 N.ar    1  UNL1       -0.1680
      6 C         140.7319  139.8637  161.0125 C.3     1  UNL1        0.1414
      7 N         139.3164  140.3586  161.0546 N.am    1  UNL1       -0.2660
      8 C         138.7152  141.2203  162.1250 C.2     1  UNL1        0.2525
      9 O         137.2777  141.6388  162.0318 O.2     1  UNL1       -0.2698
     10 C         138.6079  139.8405  159.8381 C.3     1  UNL1        0.1236
     11 C         140.8137  135.3847  153.1248 C.3     1  UNL1        0.0311
     12 C         141.5917  135.6839  154.3719 C.ar    1  UNL1       -0.0204
     13 C         142.9709  135.1214  154.5485 C.ar    1  UNL1       -0.0042
     14 C         143.7489  135.4206  155.7956 C.ar    1  UNL1        0.0012
     15 C         143.1475  136.2824  156.8660 C.ar    1  UNL1        0.0191
     16 C         141.7682  136.8449  156.6894 C.ar    1  UNL1        0.0825
     17 C         140.9903  136.5457  155.4423 C.ar    1  UNL1        0.0149
     18 C         139.5513  141.6635  163.2888 C.ar    1  UNL1        0.0888
     19 C         140.6491  142.6652  163.0852 C.ar    1  UNL1        0.0259
     20 C         141.4853  143.1085  164.2490 C.ar    1  UNL1        0.1061
     21 C         141.2237  142.5501  165.6163 C.ar    1  UNL1        0.0215
     22 C         140.1258  141.5483  165.8200 C.ar    1  UNL1        0.0384
     23 C         139.2897  141.1051  164.6562 C.ar    1  UNL1        0.1432
     24 S         142.5830  144.1103  164.0453 S.O2    1  UNL1        0.0105
     25 C         143.6808  145.1119  163.8416 C.3     1  UNL1        0.1816
     26 O         143.6014  143.0641  164.3897 O.2     1  UNL1       -0.1686
     27 O         141.5647  145.1564  163.7009 O.2     1  UNL1       -0.1686
     28 O         138.1920  140.1034  164.8598 O.3     1  UNL1       -0.4702
     29 C         138.5281  138.6654  165.1233 C.3     1  UNL1        0.2599
     30 C         138.0527  138.0026  166.3821 C.3     1  UNL1        0.0566
     31 C         139.3396  137.8904  164.1280 C.3     1  UNL1        0.4340
     32 F         140.1511  137.1153  163.1326 F       1  UNL1       -0.1664
     33 F         140.4204  137.7072  165.1519 F       1  UNL1       -0.1664
     34 F         138.2588  138.0736  163.1040 F       1  UNL1       -0.1664
@<TRIPOS>BOND
     1    11    12    1
     2    12    13   ar
     3    13    14   ar
     4    14    15   ar
     5    15    16   ar
     6    16     1    1
     7     1     2   ar
     8     2     3   ar
     9     3     4   ar
    10     4     5   ar
    11     4     6    1
    12     6     7    1
    13     7     8   am
    14     8     9    2
    15     8    18    1
    16    18    19   ar
    17    19    20   ar
    18    20    24    1
    19    24    25    1
    20    24    26    2
    21    24    27    2
    22    20    21   ar
    23    21    22   ar
    24    22    23   ar
    25    23    28    1
    26    28    29    1
    27    29    30    1
    28    29    31    1
    29    31    32    1
    30    31    33    1
    31    31    34    1
    32     7    10    1
    33    16    17   ar
    34    17    12   ar
    35     5     1   ar
    36    23    18   ar
    37    10     3    1
@<TRIPOS>MOLECULE
*****
 34 37 0 0 0
SMALL
GASTEIGER

@<TRIPOS>ATOM
      1 N         142.0398  137.6178  158.1563 N.ar    1  UNL1       -0.2287
      2 C         143.0244  137.4232  159.2711 C.ar    1  UNL1        0.0990
      3 C         142.6344  138.3332  160.3980 C.ar    1  UNL1        0.0338
      4 C         141.4088  139.0901  159.9797 C.ar    1  UNL1        0.0981
      5 N         141.0413  138.6480  158.5942 N.ar    1  UNL1       -0.1680
      6 C         141.0189  140.0001  161.1066 C.3     1  UNL1        0.1414
      7 N         142.0035  139.8055  162.2214 N.am    1  UNL1       -0.2660
      8 C         141.9917  140.5163  163.5422 C.2     1  UNL1        0.2525
      9 O         143.0472  140.2162  164.5649 O.2     1  UNL1       -0.2698
     10 C         143.0019  138.7753  161.7834 C.3     1  UNL1        0.1236
     11 C         139.8147  136.6045  153.5713 C.3     1  UNL1        0.0311
     12 C         140.9390  136.4003  154.5430 C.ar    1  UNL1       -0.0204
     13 C         142.0752  135.4854  154.1937 C.ar    1  UNL1       -0.0042
     14 C         143.1996  135.2812  155.1654 C.ar    1  UNL1        0.0012
     15 C         143.1877  135.9921  156.4862 C.ar    1  UNL1        0.0191
     16 C         142.0516  136.9070  156.8354 C.ar    1  UNL1        0.0825
     17 C         140.9272  137.1112  155.8638 C.ar    1  UNL1        0.0149
     18 C         140.9245  141.5272  163.8404 C.ar    1  UNL1        0.0888
     19 C         140.8540  142.7992  163.0485 C.ar    1  UNL1        0.0259
     20 C         139.7867  143.8102  163.3467 C.ar    1  UNL1        0.1061
     21 C         138.7899  143.5493  164.4367 C.ar    1  UNL1        0.0215
     22 C         138.8604  142.2772  165.2287 C.ar    1  UNL1        0.0384
     23 C         139.9276  141.2663  164.9305 C.ar    1  UNL1        0.1432
     24 S         139.7163  145.0821  162.5547 S.O2    1  UNL1        0.0105
     25 C         139.6461  146.3541  161.7627 C.3     1  UNL1        0.1816
     26 O         141.2049  145.2321  162.6634 O.2     1  UNL1       -0.1686
     27 O         138.2278  144.9322  162.4459 O.2     1  UNL1       -0.1686
     28 O         139.9981  139.9943  165.7224 O.3     1  UNL1       -0.4702
     29 C         139.0547  138.8684  165.4184 C.3     1  UNL1        0.2599
     30 C         137.9748  138.5101  166.3959 C.3     1  UNL1        0.0566
     31 C         139.1913  138.1007  164.1370 C.3     1  UNL1        0.4340
     32 F         139.3279  137.3331  162.8556 F       1  UNL1       -0.1664
     33 F         140.2327  137.2272  164.7714 F       1  UNL1       -0.1664
     34 F         138.1499  138.9743  163.5027 F       1  UNL1       -0.1664
@<TRIPOS>BOND
     1    11    12    1
     2    12    13   ar
     3    13    14   ar
     4    14    15   ar
     5    15    16   ar
     6    16     1    1
     7     1     2   ar
     8     2     3   ar
     9     3     4   ar
    10     4     5   ar
    11     4     6    1
    12     6     7    1
    13     7     8   am
    14     8     9    2
    15     8    18    1
    16    18    19   ar
    17    19    20   ar
    18    20    24    1
    19    24    25    1
    20    24    26    2
    21    24    27    2
    22    20    21   ar
    23    21    22   ar
    24    22    23   ar
    25    23    28    1
    26    28    29    1
    27    29    30    1
    28    29    31    1
    29    31    32    1
    30    31    33    1
    31    31    34    1
    32     7    10    1
    33    16    17   ar
    34    17    12   ar
    35     5     1   ar
    36    23    18   ar
    37    10     3    1
@<TRIPOS>MOLECULE
*****
 34 37 0 0 0
SMALL
GASTEIGER

@<TRIPOS>ATOM
      1 N         138.8669  141.8629  159.8376 N.ar    1  UNL1       -0.2287
      2 C         138.1138  140.6334  160.2515 C.ar    1  UNL1        0.0990
      3 C         138.5605  140.2597  161.6338 C.ar    1  UNL1        0.0338
      4 C         139.5897  141.2581  162.0742 C.ar    1  UNL1        0.0981
      5 N         139.7791  142.2489  160.9641 N.ar    1  UNL1       -0.1680
      6 C         140.0364  140.8843  163.4565 C.3     1  UNL1        0.1414
      7 N         139.2833  139.6548  163.8704 N.am    1  UNL1       -0.2660
      8 C         139.4186  138.9375  165.1807 C.2     1  UNL1        0.2525
      9 O         138.5950  137.7140  165.4546 O.2     1  UNL1       -0.2698
     10 C         138.3712  139.2688  162.7439 C.3     1  UNL1        0.1236
     11 C         136.3658  142.5871  155.3409 C.3     1  UNL1        0.0311
     12 C         137.4811  142.9424  156.2789 C.ar    1  UNL1       -0.0204
     13 C         138.4611  144.0153  155.9066 C.ar    1  UNL1       -0.0042
     14 C         139.5764  144.3706  156.8446 C.ar    1  UNL1        0.0012
     15 C         139.7116  143.6531  158.1549 C.ar    1  UNL1        0.0191
     16 C         138.7316  142.5803  158.5273 C.ar    1  UNL1        0.0825
     17 C         137.6163  142.2249  157.5893 C.ar    1  UNL1        0.0149
     18 C         140.3776  139.4434  166.2173 C.ar    1  UNL1        0.0888
     19 C         139.9174  140.4351  167.2442 C.ar    1  UNL1        0.0259
     20 C         140.8763  140.9411  168.2809 C.ar    1  UNL1        0.1061
     21 C         142.2954  140.4553  168.2905 C.ar    1  UNL1        0.0215
     22 C         142.7557  139.4635  167.2635 C.ar    1  UNL1        0.0384
     23 C         141.7967  138.9576  166.2269 C.ar    1  UNL1        0.1432
     24 S         140.4160  141.9328  169.3078 S.O2    1  UNL1        0.0105
     25 C         139.9557  142.9246  170.3346 C.3     1  UNL1        0.1816
     26 O         140.4582  143.0207  168.2759 O.2     1  UNL1       -0.1686
     27 O         140.3738  140.8449  170.3396 O.2     1  UNL1       -0.1686
     28 O         142.2569  137.9659  165.2000 O.3     1  UNL1       -0.4702
     29 C         142.8008  138.4441  163.8864 C.3     1  UNL1        0.2599
     30 C         143.9941  139.3525  163.8547 C.3     1  UNL1        0.0566
     31 C         142.1515  138.0140  162.6045 C.3     1  UNL1        0.4340
     32 F         141.5022  137.5839  161.3225 F       1  UNL1       -0.1664
     33 F         141.3880  136.9570  163.3459 F       1  UNL1       -0.1664
     34 F         142.9151  139.0711  161.8630 F       1  UNL1       -0.1664
@<TRIPOS>BOND
     1    11    12    1
     2    12    13   ar
     3    13    14   ar
     4    14    15   ar
     5    15    16   ar
     6    16     1    1
     7     1     2   ar
     8     2     3   ar
     9     3     4   ar
    10     4     5   ar
    11     4     6    1
    12     6     7    1
    13     7     8   am
    14     8     9    2
    15     8    18    1
    16    18    19   ar
    17    19    20   ar
    18    20    24    1
    19    24    25    1
    20    24    26    2
    21    24    27    2
    22    20    21   ar
    23    21    22   ar
    24    22    23   ar
    25    23    28    1
    26    28    29    1
    27    29    30    1
    28    29    31    1
    29    31    32    1
    30    31    33    1
    31    31    34    1
    32     7    10    1
    33    16    17   ar
    34    17    12   ar
    35     5     1   ar
    36    23    18   ar
    37    10     3    1
@<TRIPOS>MOLECULE
*****
 34 37 0 0 0
SMALL
GASTEIGER

@<TRIPOS>ATOM
      1 N         143.2479  141.8287  159.3083 N.ar    1  UNL1       -0.2287
      2 C         142.3059  142.9850  159.4689 C.ar    1  UNL1        0.0990
      3 C         141.5163  142.7684  160.7257 C.ar    1  UNL1        0.0338
      4 C         141.9703  141.4783  161.3419 C.ar    1  UNL1        0.0981
      5 N         143.0404  140.8975  160.4658 N.ar    1  UNL1       -0.1680
      6 C         141.1807  141.2616  162.5987 C.3     1  UNL1        0.1414
      7 N         140.2386  142.4179  162.7594 N.am    1  UNL1       -0.2660
      8 C         139.2609  142.6094  163.8806 C.2     1  UNL1        0.2525
      9 O         138.3789  143.8224  163.9078 O.2     1  UNL1       -0.2698
     10 C         140.4461  143.3491  161.6018 C.3     1  UNL1        0.1236
     11 C         144.8534  139.1703  155.1423 C.3     1  UNL1        0.0311
     12 C         145.0284  140.3081  156.1040 C.ar    1  UNL1       -0.0204
     13 C         146.1812  141.2544  155.9444 C.ar    1  UNL1       -0.0042
     14 C         146.3563  142.3922  156.9060 C.ar    1  UNL1        0.0012
     15 C         145.3784  142.5836  158.0273 C.ar    1  UNL1        0.0191
     16 C         144.2256  141.6373  158.1870 C.ar    1  UNL1        0.0825
     17 C         144.0506  140.4995  157.2253 C.ar    1  UNL1        0.0149
     18 C         139.1652  141.5879  164.9748 C.ar    1  UNL1        0.0888
     19 C         139.9461  141.7711  166.2423 C.ar    1  UNL1        0.0259
     20 C         139.8504  140.7495  167.3366 C.ar    1  UNL1        0.1061
     21 C         138.9737  139.5449  167.1634 C.ar    1  UNL1        0.0215
     22 C         138.1927  139.3616  165.8959 C.ar    1  UNL1        0.0384
     23 C         138.2885  140.3831  164.8017 C.ar    1  UNL1        0.1432
     24 S         140.6314  140.9329  168.6041 S.O2    1  UNL1        0.0105
     25 C         141.4124  141.1161  169.8715 C.3     1  UNL1        0.1816
     26 O         139.9882  139.7052  169.1779 O.2     1  UNL1       -0.1686
     27 O         141.2746  142.1605  168.0303 O.2     1  UNL1       -0.1686
     28 O         137.5075  140.1998  163.5342 O.3     1  UNL1       -0.4702
     29 C         138.0615  139.3519  162.4278 C.3     1  UNL1        0.2599
     30 C         138.6802  138.0216  162.7403 C.3     1  UNL1        0.0566
     31 C         137.9969  139.8342  161.0090 C.3     1  UNL1        0.4340
     32 F         137.9323  140.3165  159.5901 F       1  UNL1       -0.1664
     33 F         137.4657  141.1548  161.4821 F       1  UNL1       -0.1664
     34 F         138.5281  138.5135  160.5358 F       1  UNL1       -0.1664
@<TRIPOS>BOND
     1    11    12    1
     2    12    13   ar
     3    13    14   ar
     4    14    15   ar
     5    15    16   ar
     6    16     1    1
     7     1     2   ar
     8     2     3   ar
     9     3     4   ar
    10     4     5   ar
    11     4     6    1
    12     6     7    1
    13     7     8   am
    14     8     9    2
    15     8    18    1
    16    18    19   ar
    17    19    20   ar
    18    20    24    1
    19    24    25    1
    20    24    26    2
    21    24    27    2
    22    20    21   ar
    23    21    22   ar
    24    22    23   ar
    25    23    28    1
    26    28    29    1
    27    29    30    1
    28    29    31    1
    29    31    32    1
    30    31    33    1
    31    31    34    1
    32     7    10    1
    33    16    17   ar
    34    17    12   ar
    35     5     1   ar
    36    23    18   ar
    37    10     3    1
@<TRIPOS>MOLECULE
*****
 34 37 0 0 0
SMALL
GASTEIGER

@<TRIPOS>ATOM
      1 N         140.3501  145.1180  158.1928 N.ar    1  UNL1       -0.2287
      2 C         141.2612  143.9353  158.0479 C.ar    1  UNL1        0.0990
      3 C         141.3387  143.2444  159.3770 C.ar    1  UNL1        0.0338
      4 C         140.4754  144.0000  160.3433 C.ar    1  UNL1        0.0981
      5 N         139.8644  145.1580  159.6114 N.ar    1  UNL1       -0.1680
      6 C         140.5529  143.3091  161.6724 C.3     1  UNL1        0.1414
      7 N         141.4640  142.1263  161.5276 N.am    1  UNL1       -0.2660
      8 C         141.8260  141.1543  162.6111 C.2     1  UNL1        0.2525
      9 O         142.7546  140.0137  162.3160 O.2     1  UNL1       -0.2698
     10 C         141.9497  142.0864  160.1089 C.3     1  UNL1        0.1236
     11 C         138.1862  149.6035  156.7100 C.3     1  UNL1        0.0311
     12 C         138.9062  148.3328  156.3678 C.ar    1  UNL1       -0.0204
     13 C         139.2642  148.0343  154.9421 C.ar    1  UNL1       -0.0042
     14 C         139.9842  146.7637  154.5999 C.ar    1  UNL1        0.0012
     15 C         140.3461  145.7916  155.6835 C.ar    1  UNL1        0.0191
     16 C         139.9881  146.0901  157.1092 C.ar    1  UNL1        0.0825
     17 C         139.2681  147.3608  157.4514 C.ar    1  UNL1        0.0149
     18 C         141.2593  141.3226  163.9897 C.ar    1  UNL1        0.0888
     19 C         140.2584  140.3365  164.5147 C.ar    1  UNL1        0.0259
     20 C         139.6917  140.5049  165.8934 C.ar    1  UNL1        0.1061
     21 C         140.1260  141.6592  166.7469 C.ar    1  UNL1        0.0215
     22 C         141.1270  142.6454  166.2219 C.ar    1  UNL1        0.0384
     23 C         141.6937  142.4771  164.8433 C.ar    1  UNL1        0.1432
     24 S         138.6907  139.5187  166.4183 S.O2    1  UNL1        0.0105
     25 C         137.6897  138.5326  166.9431 C.3     1  UNL1        0.1816
     26 O         138.1773  139.2989  165.0261 O.2     1  UNL1       -0.1686
     27 O         139.2040  139.7385  167.8105 O.2     1  UNL1       -0.1686
     28 O         142.6946  143.4631  164.3183 O.3     1  UNL1       -0.4702
     29 C         144.1592  143.2454  164.5589 C.3     1  UNL1        0.2599
     30 C         144.8269  143.8786  165.7435 C.3     1  UNL1        0.0566
     31 C         144.9559  142.3947  163.6148 C.3     1  UNL1        0.4340
     32 F         145.7527  141.5440  162.6707 F       1  UNL1       -0.1664
     33 F         144.9885  141.2944  164.6338 F       1  UNL1       -0.1664
     34 F         144.9233  143.4950  162.5957 F       1  UNL1       -0.1664
@<TRIPOS>BOND
     1    11    12    1
     2    12    13   ar
     3    13    14   ar
     4    14    15   ar
     5    15    16   ar
     6    16     1    1
     7     1     2   ar
     8     2     3   ar
     9     3     4   ar
    10     4     5   ar
    11     4     6    1
    12     6     7    1
    13     7     8   am
    14     8     9    2
    15     8    18    1
    16    18    19   ar
    17    19    20   ar
    18    20    24    1
    19    24    25    1
    20    24    26    2
    21    24    27    2
    22    20    21   ar
    23    21    22   ar
    24    22    23   ar
    25    23    28    1
    26    28    29    1
    27    29    30    1
    28    29    31    1
    29    31    32    1
    30    31    33    1
    31    31    34    1
    32     7    10    1
    33    16    17   ar
    34    17    12   ar
    35     5     1   ar
    36    23    18   ar
    37    10     3    1
@<TRIPOS>MOLECULE
*****
 34 37 0 0 0
SMALL
GASTEIGER

@<TRIPOS>ATOM
      1 N         140.6569  140.4943  166.8729 N.ar    1  UNL1       -0.2287
      2 C         139.3057  139.9501  166.5153 C.ar    1  UNL1        0.0990
      3 C         139.2220  139.8630  165.0201 C.ar    1  UNL1        0.0338
      4 C         140.5215  140.3532  164.4537 C.ar    1  UNL1        0.0981
      5 N         141.4084  140.7434  165.5988 N.ar    1  UNL1       -0.1680
      6 C         140.4378  140.2661  162.9586 C.3     1  UNL1        0.1414
      7 N         139.0865  139.7219  162.6009 N.am    1  UNL1       -0.2660
      8 C         138.5762  139.4710  161.2130 C.2     1  UNL1        0.2525
      9 O         137.1956  138.9209  161.0094 O.2     1  UNL1       -0.2698
     10 C         138.3351  139.4728  163.8751 C.3     1  UNL1        0.1236
     11 C         144.2314  142.5166  170.0562 C.3     1  UNL1        0.0311
     12 C         142.9544  141.7564  169.8526 C.ar    1  UNL1       -0.0204
     13 C         142.1878  141.2471  171.0370 C.ar    1  UNL1       -0.0042
     14 C         140.9109  140.4869  170.8334 C.ar    1  UNL1        0.0012
     15 C         140.4006  140.2360  169.4453 C.ar    1  UNL1        0.0191
     16 C         141.1673  140.7452  168.2609 C.ar    1  UNL1        0.0825
     17 C         142.4442  141.5055  168.4645 C.ar    1  UNL1        0.0149
     18 C         139.4465  139.7701  160.0284 C.ar    1  UNL1        0.0888
     19 C         140.3105  138.6934  159.4416 C.ar    1  UNL1        0.0259
     20 C         141.1808  138.9925  158.2570 C.ar    1  UNL1        0.1061
     21 C         141.1871  140.3682  157.6593 C.ar    1  UNL1        0.0215
     22 C         140.3231  141.4449  158.2461 C.ar    1  UNL1        0.0384
     23 C         139.4528  141.1458  159.4306 C.ar    1  UNL1        0.1432
     24 S         142.0448  137.9158  157.6703 S.O2    1  UNL1        0.0105
     25 C         142.9089  136.8391  157.0837 C.3     1  UNL1        0.1816
     26 O         143.2556  138.5516  158.2867 O.2     1  UNL1       -0.1686
     27 O         140.8341  137.2800  157.0540 O.2     1  UNL1       -0.1686
     28 O         138.5888  142.2225  160.0174 O.3     1  UNL1       -0.4702
     29 C         139.1265  143.1074  161.1026 C.3     1  UNL1        0.2599
     30 C         140.5800  143.4777  161.1173 C.3     1  UNL1        0.0566
     31 C         138.2107  143.6221  162.1733 C.3     1  UNL1        0.4340
     32 F         137.2948  144.1367  163.2440 F       1  UNL1       -0.1664
     33 F         139.0094  144.8896  162.2472 F       1  UNL1       -0.1664
     34 F         137.4119  142.3545  162.0994 F       1  UNL1       -0.1664
@<TRIPOS>BOND
     1    11    12    1
     2    12    13   ar
     3    13    14   ar
     4    14    15   ar
     5    15    16   ar
     6    16     1    1
     7     1     2   ar
     8     2     3   ar
     9     3     4   ar
    10     4     5   ar
    11     4     6    1
    12     6     7    1
    13     7     8   am
    14     8     9    2
    15     8    18    1
    16    18    19   ar
    17    19    20   ar
    18    20    24    1
    19    24    25    1
    20    24    26    2
    21    24    27    2
    22    20    21   ar
    23    21    22   ar
    24    22    23   ar
    25    23    28    1
    26    28    29    1
    27    29    30    1
    28    29    31    1
    29    31    32    1
    30    31    33    1
    31    31    34    1
    32     7    10    1
    33    16    17   ar
    34    17    12   ar
    35     5     1   ar
    36    23    18   ar
    37    10     3    1
