@<TRIPOS>MOLECULE
*****
 32 36 0 0 0
SMALL
GASTEIGER

@<TRIPOS>ATOM
      1 C         143.2562  138.0586  162.0376 C.3     1  UNL1        0.0731
      2 N         142.0439  138.3100  162.8844 N.3     1  UNL1       -0.2712
      3 C         141.1750  137.2616  163.5136 C.3     1  UNL1        0.0738
      4 C         140.0817  137.9577  164.2687 C.3     1  UNL1        0.0372
      5 C         138.8690  137.7400  165.1242 C.3     1  UNL1        0.0245
      6 C         138.3127  139.0840  165.4905 C.3     1  UNL1        0.0910
      7 N         139.1817  140.1324  164.8613 N.pl3   1  UNL1       -0.3042
      8 C         140.2749  139.4363  164.1062 C.3     1  UNL1        0.0902
      9 C         141.4876  139.6541  163.2507 C.3     1  UNL1        0.0921
     10 C         138.9908  141.6164  164.9685 C.ar    1  UNL1        0.1034
     11 C         137.8873  142.2876  164.2058 C.ar    1  UNL1        0.1555
     12 F         136.9746  141.4750  163.3360 F       1  UNL1       -0.2028
     13 C         137.6965  143.7716  164.3130 C.ar    1  UNL1        0.0311
     14 C         138.6091  144.5843  165.1828 C.ar    1  UNL1        0.0047
     15 C         139.7127  143.9130  165.9455 C.ar    1  UNL1        0.0311
     16 C         139.9035  142.4291  165.8383 C.ar    1  UNL1        0.1555
     17 F         141.0070  141.7578  166.6010 F       1  UNL1       -0.2028
     18 C         143.0979  137.6792  160.5951 C.3     1  UNL1        0.0294
     19 C         143.0120  138.7459  159.5440 C.3     1  UNL1        0.0666
     20 S         141.6736  139.1850  159.0285 S.3     1  UNL1       -0.0756
     21 C         140.2307  142.2986  160.8421 C.ar    1  UNL1        0.2029
     22 N         139.1080  141.3183  161.0114 N.ar    1  UNL1       -0.1250
     23 N         139.5118  140.0326  160.3527 N.ar    1  UNL1       -0.1220
     24 C         140.8841  140.2183  159.7762 C.ar    1  UNL1        0.1933
     25 N         141.3284  141.6187  160.0787 N.ar    1  UNL1       -0.2860
     26 C         142.6401  142.2317  159.6866 C.3     1  UNL1        0.1341
     27 C         142.1600  143.4623  163.2029 C.3     1  UNL1        0.0556
     28 C         141.1386  144.2456  162.4326 C.ar    1  UNL1        0.1001
     29 N         140.8248  145.7014  162.6122 N.ar    1  UNL1       -0.2085
     30 C         139.7441  146.0662  161.6380 C.ar    1  UNL1        0.2849
     31 O         139.3899  144.8359  160.8564 O.2     1  UNL1       -0.4283
     32 C         140.2519  143.7107  161.3475 C.ar    1  UNL1        0.1964
@<TRIPOS>BOND
     1    27    28    1
     2    28    29   ar
     3    29    30   ar
     4    30    31   ar
     5    31    32   ar
     6    32    21    1
     7    21    22   ar
     8    22    23   ar
     9    23    24   ar
    10    24    20    1
    11    20    19    1
    12    19    18    1
    13    18     1    1
    14     1     2    1
    15     2     3    1
    16     3     4    1
    17     4     5    1
    18     5     6    1
    19     6     7    1
    20     7    10    1
    21    10    11   ar
    22    11    12    1
    23    11    13   ar
    24    13    14   ar
    25    14    15   ar
    26    15    16   ar
    27    16    17    1
    28     7     8    1
    29     8     9    1
    30    24    25   ar
    31    25    26    1
    32    32    28   ar
    33    25    21   ar
    34     9     2    1
    35     8     4    1
    36    16    10   ar
@<TRIPOS>MOLECULE
*****
 32 36 0 0 0
SMALL
GASTEIGER

@<TRIPOS>ATOM
      1 C         140.1356  145.7929  161.1872 C.3     1  UNL1        0.0731
      2 N         140.3599  144.9886  162.4333 N.3     1  UNL1       -0.2712
      3 C         139.5433  145.0627  163.6894 C.3     1  UNL1        0.0738
      4 C         140.1189  144.0889  164.6745 C.3     1  UNL1        0.0372
      5 C         139.9700  143.5328  166.0596 C.3     1  UNL1        0.0245
      6 C         141.0503  142.5133  166.2685 C.3     1  UNL1        0.0910
      7 N         141.8669  142.4393  165.0124 N.pl3   1  UNL1       -0.3042
      8 C         141.2913  143.4131  164.0273 C.3     1  UNL1        0.0902
      9 C         141.4402  143.9692  162.6421 C.3     1  UNL1        0.0921
     10 C         143.0512  141.5481  164.7819 C.ar    1  UNL1        0.1034
     11 C         144.3644  142.1392  164.3624 C.ar    1  UNL1        0.1555
     12 F         144.4933  143.6217  164.1734 F       1  UNL1       -0.2028
     13 C         145.5486  141.2479  164.1319 C.ar    1  UNL1        0.0311
     14 C         145.4197  139.7655  164.3209 C.ar    1  UNL1        0.0047
     15 C         144.1065  139.1743  164.7405 C.ar    1  UNL1        0.0311
     16 C         142.9222  140.0656  164.9709 C.ar    1  UNL1        0.1555
     17 F         141.6090  139.4744  165.3904 F       1  UNL1       -0.2028
     18 C         140.6829  145.3125  159.8759 C.3     1  UNL1        0.0294
     19 C         139.9066  144.3254  159.0554 C.3     1  UNL1        0.0666
     20 S         139.9276  142.8696  159.4160 S.3     1  UNL1       -0.0756
     21 C         138.4903  141.1423  162.5809 C.ar    1  UNL1        0.2029
     22 N         137.3861  142.1012  162.2472 N.ar    1  UNL1       -0.1250
     23 N         137.7901  142.8649  161.0210 N.ar    1  UNL1       -0.1220
     24 C         139.1440  142.3781  160.5969 C.ar    1  UNL1        0.1933
     25 N         139.5768  141.3134  161.5608 N.ar    1  UNL1       -0.2860
     26 C         140.8691  140.5534  161.5132 C.3     1  UNL1        0.1341
     27 C         138.6290  137.8892  162.3622 C.3     1  UNL1        0.0556
     28 C         138.5692  138.6858  163.6318 C.ar    1  UNL1        0.1001
     29 N         138.5626  138.1270  165.0238 N.ar    1  UNL1       -0.2085
     30 C         138.4947  139.2769  165.9846 C.ar    1  UNL1        0.2849
     31 O         138.4594  140.5464  165.1864 O.2     1  UNL1       -0.4283
     32 C         138.5054  140.1810  163.7323 C.ar    1  UNL1        0.1964
@<TRIPOS>BOND
     1    27    28    1
     2    28    29   ar
     3    29    30   ar
     4    30    31   ar
     5    31    32   ar
     6    32    21    1
     7    21    22   ar
     8    22    23   ar
     9    23    24   ar
    10    24    20    1
    11    20    19    1
    12    19    18    1
    13    18     1    1
    14     1     2    1
    15     2     3    1
    16     3     4    1
    17     4     5    1
    18     5     6    1
    19     6     7    1
    20     7    10    1
    21    10    11   ar
    22    11    12    1
    23    11    13   ar
    24    13    14   ar
    25    14    15   ar
    26    15    16   ar
    27    16    17    1
    28     7     8    1
    29     8     9    1
    30    24    25   ar
    31    25    26    1
    32    32    28   ar
    33    25    21   ar
    34     9     2    1
    35     8     4    1
    36    16    10   ar
@<TRIPOS>MOLECULE
*****
 32 36 0 0 0
SMALL
GASTEIGER

@<TRIPOS>ATOM
      1 C         138.8142  138.8000  162.7846 C.3     1  UNL1        0.0731
      2 N         139.8402  138.8704  163.8766 N.3     1  UNL1       -0.2712
      3 C         141.1191  138.0889  163.9365 C.3     1  UNL1        0.0738
      4 C         141.8366  138.4702  165.1973 C.3     1  UNL1        0.0372
      5 C         143.0705  138.2229  166.0136 C.3     1  UNL1        0.0245
      6 C         142.9977  139.0873  167.2375 C.3     1  UNL1        0.0910
      7 N         141.7187  139.8688  167.1775 N.pl3   1  UNL1       -0.3042
      8 C         141.0012  139.4874  165.9166 C.3     1  UNL1        0.0902
      9 C         139.7673  139.7347  165.1003 C.3     1  UNL1        0.0921
     10 C         141.2412  140.8580  168.1990 C.ar    1  UNL1        0.1034
     11 C         142.0804  142.0555  168.5330 C.ar    1  UNL1        0.1555
     12 F         143.3972  142.2639  167.8454 F       1  UNL1       -0.2028
     13 C         141.6029  143.0447  169.5545 C.ar    1  UNL1        0.0311
     14 C         140.2862  142.8363  170.2420 C.ar    1  UNL1        0.0047
     15 C         139.4469  141.6387  169.9081 C.ar    1  UNL1        0.0311
     16 C         139.9244  140.6495  168.8866 C.ar    1  UNL1        0.1555
     17 F         139.0852  139.4520  168.5526 F       1  UNL1       -0.2028
     18 C         137.7489  139.8514  162.6875 C.3     1  UNL1        0.0294
     19 C         137.6904  140.7515  161.4890 C.3     1  UNL1        0.0666
     20 S         138.3487  142.0987  161.5300 S.3     1  UNL1       -0.0756
     21 C         141.7061  142.3190  163.4651 C.ar    1  UNL1        0.2029
     22 N         140.8077  143.1313  164.3500 N.ar    1  UNL1       -0.1250
     23 N         139.4406  143.1477  163.7328 N.ar    1  UNL1       -0.1220
     24 C         139.4942  142.3455  162.4664 C.ar    1  UNL1        0.1933
     25 N         140.8943  141.8333  162.3010 N.ar    1  UNL1       -0.2860
     26 C         141.3948  140.9845  161.1700 C.3     1  UNL1        0.1341
     27 C         143.9750  144.5249  164.2626 C.3     1  UNL1        0.0556
     28 C         144.2038  143.0551  164.0692 C.ar    1  UNL1        0.1001
     29 N         145.5156  142.3412  164.2084 N.ar    1  UNL1       -0.2085
     30 C         145.2835  140.8861  163.9278 C.ar    1  UNL1        0.2849
     31 O         143.8282  140.7006  163.6153 O.2     1  UNL1       -0.4283
     32 C         143.1609  142.0412  163.7026 C.ar    1  UNL1        0.1964
@<TRIPOS>BOND
     1    27    28    1
     2    28    29   ar
     3    29    30   ar
     4    30    31   ar
     5    31    32   ar
     6    32    21    1
     7    21    22   ar
     8    22    23   ar
     9    23    24   ar
    10    24    20    1
    11    20    19    1
    12    19    18    1
    13    18     1    1
    14     1     2    1
    15     2     3    1
    16     3     4    1
    17     4     5    1
    18     5     6    1
    19     6     7    1
    20     7    10    1
    21    10    11   ar
    22    11    12    1
    23    11    13   ar
    24    13    14   ar
    25    14    15   ar
    26    15    16   ar
    27    16    17    1
    28     7     8    1
    29     8     9    1
    30    24    25   ar
    31    25    26    1
    32    32    28   ar
    33    25    21   ar
    34     9     2    1
    35     8     4    1
    36    16    10   ar
@<TRIPOS>MOLECULE
*****
 32 36 0 0 0
SMALL
GASTEIGER

@<TRIPOS>ATOM
      1 C         138.6104  137.8216  163.2876 C.3     1  UNL1        0.0731
      2 N         139.7235  138.1758  164.2286 N.3     1  UNL1       -0.2712
      3 C         141.1197  137.6290  164.1883 C.3     1  UNL1        0.0738
      4 C         141.8949  138.2544  165.3099 C.3     1  UNL1        0.0372
      5 C         143.2369  138.3029  165.9782 C.3     1  UNL1        0.0245
      6 C         143.1494  139.2663  167.1246 C.3     1  UNL1        0.0910
      7 N         141.7531  139.8131  167.1648 N.pl3   1  UNL1       -0.3042
      8 C         140.9779  139.1877  166.0433 C.3     1  UNL1        0.0902
      9 C         139.6359  139.1392  165.3750 C.3     1  UNL1        0.0921
     10 C         141.2249  140.8103  168.1531 C.ar    1  UNL1        0.1034
     11 C         140.9127  142.2097  167.7126 C.ar    1  UNL1        0.1555
     12 F         141.1286  142.6120  166.2837 F       1  UNL1       -0.2028
     13 C         140.3845  143.2069  168.7008 C.ar    1  UNL1        0.0311
     14 C         140.1685  142.8047  170.1296 C.ar    1  UNL1        0.0047
     15 C         140.4808  141.4052  170.5702 C.ar    1  UNL1        0.0311
     16 C         141.0090  140.4080  169.5820 C.ar    1  UNL1        0.1555
     17 F         141.3212  139.0086  170.0225 F       1  UNL1       -0.2028
     18 C         138.7700  138.0564  161.8148 C.3     1  UNL1        0.0294
     19 C         137.9421  139.1018  161.1278 C.3     1  UNL1        0.0666
     20 S         138.5769  140.0263  160.1318 S.3     1  UNL1       -0.0756
     21 C         140.2666  143.2106  161.5709 C.ar    1  UNL1        0.2029
     22 N         139.1030  143.8069  160.8356 N.ar    1  UNL1       -0.1250
     23 N         138.3285  142.6867  160.2071 N.ar    1  UNL1       -0.1220
     24 C         139.0133  141.3980  160.5539 C.ar    1  UNL1        0.1933
     25 N         140.2111  141.7218  161.3968 N.ar    1  UNL1       -0.2860
     26 C         141.1828  140.7307  161.9656 C.3     1  UNL1        0.1341
     27 C         139.7643  144.8681  164.3368 C.3     1  UNL1        0.0556
     28 C         141.0726  144.7317  163.6159 C.ar    1  UNL1        0.1001
     29 N         142.3797  145.3332  164.0396 N.ar    1  UNL1       -0.2085
     30 C         143.4184  144.9431  163.0302 C.ar    1  UNL1        0.2849
     31 O         142.7533  144.1005  161.9826 O.2     1  UNL1       -0.4283
     32 C         141.3034  143.9699  162.3446 C.ar    1  UNL1        0.1964
@<TRIPOS>BOND
     1    27    28    1
     2    28    29   ar
     3    29    30   ar
     4    30    31   ar
     5    31    32   ar
     6    32    21    1
     7    21    22   ar
     8    22    23   ar
     9    23    24   ar
    10    24    20    1
    11    20    19    1
    12    19    18    1
    13    18     1    1
    14     1     2    1
    15     2     3    1
    16     3     4    1
    17     4     5    1
    18     5     6    1
    19     6     7    1
    20     7    10    1
    21    10    11   ar
    22    11    12    1
    23    11    13   ar
    24    13    14   ar
    25    14    15   ar
    26    15    16   ar
    27    16    17    1
    28     7     8    1
    29     8     9    1
    30    24    25   ar
    31    25    26    1
    32    32    28   ar
    33    25    21   ar
    34     9     2    1
    35     8     4    1
    36    16    10   ar
@<TRIPOS>MOLECULE
*****
 32 36 0 0 0
SMALL
GASTEIGER

@<TRIPOS>ATOM
      1 C         144.3654  143.4029  163.1244 C.3     1  UNL1        0.0731
      2 N         144.0006  142.3267  164.1035 N.3     1  UNL1       -0.2712
      3 C         144.3216  140.8676  163.9702 C.3     1  UNL1        0.0738
      4 C         143.7701  140.1599  165.1722 C.3     1  UNL1        0.0372
      5 C         143.6276  138.8207  165.8327 C.3     1  UNL1        0.0245
      6 C         142.8776  139.0148  167.1172 C.3     1  UNL1        0.0910
      7 N         142.5566  140.4740  167.2506 N.pl3   1  UNL1       -0.3042
      8 C         143.1081  141.1817  166.0485 C.3     1  UNL1        0.0902
      9 C         143.2506  142.5209  165.3880 C.3     1  UNL1        0.0921
     10 C         141.8143  141.1133  168.3866 C.ar    1  UNL1        0.1034
     11 C         142.4861  142.1572  169.2284 C.ar    1  UNL1        0.1555
     12 F         143.9003  142.5620  168.9343 F       1  UNL1       -0.2028
     13 C         141.7439  142.7964  170.3644 C.ar    1  UNL1        0.0311
     14 C         140.3298  142.3917  170.6585 C.ar    1  UNL1        0.0047
     15 C         139.6579  141.3477  169.8166 C.ar    1  UNL1        0.0311
     16 C         140.4002  140.7085  168.6806 C.ar    1  UNL1        0.1555
     17 F         139.7284  139.6645  167.8388 F       1  UNL1       -0.2028
     18 C         143.5874  144.6850  163.0946 C.3     1  UNL1        0.0294
     19 C         142.3382  144.7854  162.2702 C.3     1  UNL1        0.0666
     20 S         140.9999  144.8632  162.9430 S.3     1  UNL1       -0.0756
     21 C         139.8177  141.3885  164.2058 C.ar    1  UNL1        0.2029
     22 N         139.4052  142.2681  165.3487 N.ar    1  UNL1       -0.1250
     23 N         139.7978  143.6767  165.0148 N.ar    1  UNL1       -0.1220
     24 C         140.4530  143.6678  163.6655 C.ar    1  UNL1        0.1933
     25 N         140.4654  142.2537  163.1655 N.ar    1  UNL1       -0.2860
     26 C         141.0268  141.7866  161.8552 C.3     1  UNL1        0.1341
     27 C         137.7693  139.8443  162.1886 C.3     1  UNL1        0.0556
     28 C         138.6762  139.1947  163.1913 C.ar    1  UNL1        0.1001
     29 N         138.8009  137.7212  163.4429 N.ar    1  UNL1       -0.2085
     30 C         139.8195  137.5203  164.5255 C.ar    1  UNL1        0.2849
     31 O         140.3244  138.8696  164.9431 O.2     1  UNL1       -0.4283
     32 C         139.6178  139.9044  164.1185 C.ar    1  UNL1        0.1964
@<TRIPOS>BOND
     1    27    28    1
     2    28    29   ar
     3    29    30   ar
     4    30    31   ar
     5    31    32   ar
     6    32    21    1
     7    21    22   ar
     8    22    23   ar
     9    23    24   ar
    10    24    20    1
    11    20    19    1
    12    19    18    1
    13    18     1    1
    14     1     2    1
    15     2     3    1
    16     3     4    1
    17     4     5    1
    18     5     6    1
    19     6     7    1
    20     7    10    1
    21    10    11   ar
    22    11    12    1
    23    11    13   ar
    24    13    14   ar
    25    14    15   ar
    26    15    16   ar
    27    16    17    1
    28     7     8    1
    29     8     9    1
    30    24    25   ar
    31    25    26    1
    32    32    28   ar
    33    25    21   ar
    34     9     2    1
    35     8     4    1
    36    16    10   ar
@<TRIPOS>MOLECULE
*****
 32 36 0 0 0
SMALL
GASTEIGER

@<TRIPOS>ATOM
      1 C         138.6616  141.5838  159.8054 C.3     1  UNL1        0.0731
      2 N         138.7998  142.2419  161.1462 N.3     1  UNL1       -0.2712
      3 C         137.6916  142.8697  161.9386 C.3     1  UNL1        0.0738
      4 C         138.2774  143.4036  163.2121 C.3     1  UNL1        0.0372
      5 C         137.9546  144.1215  164.4889 C.3     1  UNL1        0.0245
      6 C         139.2252  144.2675  165.2727 C.3     1  UNL1        0.0910
      7 N         140.3334  143.6398  164.4802 N.pl3   1  UNL1       -0.3042
      8 C         139.7476  143.1058  163.2067 C.3     1  UNL1        0.0902
      9 C         140.0704  142.3879  161.9299 C.3     1  UNL1        0.0921
     10 C         141.7743  143.5600  164.8894 C.ar    1  UNL1        0.1034
     11 C         142.1803  142.6855  166.0385 C.ar    1  UNL1        0.1555
     12 F         141.1454  141.8908  166.7784 F       1  UNL1       -0.2028
     13 C         143.6212  142.6057  166.4477 C.ar    1  UNL1        0.0311
     14 C         144.6561  143.4004  165.7078 C.ar    1  UNL1        0.0047
     15 C         144.2501  144.2749  164.5586 C.ar    1  UNL1        0.0311
     16 C         142.8092  144.3547  164.1494 C.ar    1  UNL1        0.1555
     17 F         142.4032  145.2291  163.0003 F       1  UNL1       -0.2028
     18 C         138.4815  140.0974  159.7145 C.3     1  UNL1        0.0294
     19 C         137.3692  139.4292  160.4671 C.3     1  UNL1        0.0666
     20 S         137.6836  138.5045  161.6055 S.3     1  UNL1       -0.0756
     21 C         140.5924  139.2637  164.0608 C.ar    1  UNL1        0.2029
     22 N         139.4633  140.0076  164.7101 N.ar    1  UNL1       -0.1250
     23 N         138.2362  139.8138  163.8694 N.ar    1  UNL1       -0.1220
     24 C         138.6070  138.9500  162.7005 C.ar    1  UNL1        0.1933
     25 N         140.0631  138.6100  162.8187 N.ar    1  UNL1       -0.2860
     26 C         140.8516  137.7648  161.8627 C.3     1  UNL1        0.1341
     27 C         143.1871  140.7297  162.7312 C.3     1  UNL1        0.0556
     28 C         143.1957  139.8607  163.9538 C.ar    1  UNL1        0.1001
     29 N         144.3984  139.5130  164.7800 N.ar    1  UNL1       -0.2085
     30 C         143.9491  138.6242  165.9017 C.ar    1  UNL1        0.2849
     31 O         142.4686  138.4227  165.7688 O.2     1  UNL1       -0.4283
     32 C         142.0030  139.1869  164.5650 C.ar    1  UNL1        0.1964
@<TRIPOS>BOND
     1    27    28    1
     2    28    29   ar
     3    29    30   ar
     4    30    31   ar
     5    31    32   ar
     6    32    21    1
     7    21    22   ar
     8    22    23   ar
     9    23    24   ar
    10    24    20    1
    11    20    19    1
    12    19    18    1
    13    18     1    1
    14     1     2    1
    15     2     3    1
    16     3     4    1
    17     4     5    1
    18     5     6    1
    19     6     7    1
    20     7    10    1
    21    10    11   ar
    22    11    12    1
    23    11    13   ar
    24    13    14   ar
    25    14    15   ar
    26    15    16   ar
    27    16    17    1
    28     7     8    1
    29     8     9    1
    30    24    25   ar
    31    25    26    1
    32    32    28   ar
    33    25    21   ar
    34     9     2    1
    35     8     4    1
    36    16    10   ar
@<TRIPOS>MOLECULE
*****
 32 36 0 0 0
SMALL
GASTEIGER

@<TRIPOS>ATOM
      1 C         143.9866  143.3459  162.8963 C.3     1  UNL1        0.0731
      2 N         143.7174  142.2868  163.9239 N.3     1  UNL1       -0.2712
      3 C         144.0982  140.8397  163.8191 C.3     1  UNL1        0.0738
      4 C         143.6364  140.1475  165.0671 C.3     1  UNL1        0.0372
      5 C         143.5863  138.8253  165.7738 C.3     1  UNL1        0.0245
      6 C         142.8891  139.0273  167.0865 C.3     1  UNL1        0.0910
      7 N         142.5083  140.4745  167.1911 N.pl3   1  UNL1       -0.3042
      8 C         142.9702  141.1667  165.9431 C.3     1  UNL1        0.0902
      9 C         143.0203  142.4889  165.2365 C.3     1  UNL1        0.0921
     10 C         141.7916  141.1166  168.3418 C.ar    1  UNL1        0.1034
     11 C         140.4009  140.6806  168.6965 C.ar    1  UNL1        0.1555
     12 F         139.7269  139.6025  167.9005 F       1  UNL1       -0.2028
     13 C         139.6841  141.3227  169.8471 C.ar    1  UNL1        0.0311
     14 C         140.3581  142.4008  170.6431 C.ar    1  UNL1        0.0047
     15 C         141.7488  142.8368  170.2884 C.ar    1  UNL1        0.0311
     16 C         142.4656  142.1947  169.1377 C.ar    1  UNL1        0.1555
     17 F         143.8563  142.6306  168.7830 F       1  UNL1       -0.2028
     18 C         143.7008  144.7847  163.2095 C.3     1  UNL1        0.0294
     19 C         142.3566  145.1836  163.7425 C.3     1  UNL1        0.0666
     20 S         141.1230  144.9399  162.9247 S.3     1  UNL1       -0.0756
     21 C         139.0896  141.6466  163.2165 C.ar    1  UNL1        0.2029
     22 N         138.5263  142.4375  164.3599 N.ar    1  UNL1       -0.1250
     23 N         139.2194  143.7674  164.3897 N.ar    1  UNL1       -0.1220
     24 C         140.2112  143.7985  163.2648 C.ar    1  UNL1        0.1933
     25 N         140.1310  142.4879  162.5397 N.ar    1  UNL1       -0.2860
     26 C         140.9486  142.0885  161.3472 C.3     1  UNL1        0.1341
     27 C         140.0446  138.8811  164.6620 C.3     1  UNL1        0.0556
     28 C         139.1220  138.9872  163.4841 C.ar    1  UNL1        0.1001
     29 N         138.4763  137.8409  162.7637 N.ar    1  UNL1       -0.2085
     30 C         137.6383  138.4035  161.6541 C.ar    1  UNL1        0.2849
     31 O         137.7661  139.8976  161.6887 O.2     1  UNL1       -0.4283
     32 C         138.6830  140.2584  162.8197 C.ar    1  UNL1        0.1964
@<TRIPOS>BOND
     1    27    28    1
     2    28    29   ar
     3    29    30   ar
     4    30    31   ar
     5    31    32   ar
     6    32    21    1
     7    21    22   ar
     8    22    23   ar
     9    23    24   ar
    10    24    20    1
    11    20    19    1
    12    19    18    1
    13    18     1    1
    14     1     2    1
    15     2     3    1
    16     3     4    1
    17     4     5    1
    18     5     6    1
    19     6     7    1
    20     7    10    1
    21    10    11   ar
    22    11    12    1
    23    11    13   ar
    24    13    14   ar
    25    14    15   ar
    26    15    16   ar
    27    16    17    1
    28     7     8    1
    29     8     9    1
    30    24    25   ar
    31    25    26    1
    32    32    28   ar
    33    25    21   ar
    34     9     2    1
    35     8     4    1
    36    16    10   ar
@<TRIPOS>MOLECULE
*****
 32 36 0 0 0
SMALL
GASTEIGER

@<TRIPOS>ATOM
      1 C         141.6335  138.0086  160.7896 C.3     1  UNL1        0.0731
      2 N         140.8432  138.3183  162.0263 N.3     1  UNL1       -0.2712
      3 C         140.2796  137.3137  162.9871 C.3     1  UNL1        0.0738
      4 C         139.5658  138.0616  164.0739 C.3     1  UNL1        0.0372
      5 C         138.7763  137.9029  165.3394 C.3     1  UNL1        0.0245
      6 C         138.4108  139.2716  165.8325 C.3     1  UNL1        0.0910
      7 N         138.9745  140.2763  164.8716 N.pl3   1  UNL1       -0.3042
      8 C         139.6883  139.5284  163.7848 C.3     1  UNL1        0.0902
      9 C         140.4777  139.6870  162.5193 C.3     1  UNL1        0.0921
     10 C         138.8467  141.7670  164.9788 C.ar    1  UNL1        0.1034
     11 C         139.7878  142.5393  165.8550 C.ar    1  UNL1        0.1555
     12 F         140.8568  141.8209  166.6240 F       1  UNL1       -0.2028
     13 C         139.6601  144.0300  165.9621 C.ar    1  UNL1        0.0311
     14 C         138.5912  144.7484  165.1932 C.ar    1  UNL1        0.0047
     15 C         137.6500  143.9760  164.3169 C.ar    1  UNL1        0.0311
     16 C         137.7777  142.4853  164.2098 C.ar    1  UNL1        0.1555
     17 F         136.8366  141.7130  163.3336 F       1  UNL1       -0.2028
     18 C         143.1253  137.8725  160.8673 C.3     1  UNL1        0.0294
     19 C         143.9674  139.0536  161.2494 C.3     1  UNL1        0.0666
     20 S         144.1220  140.2034  160.2987 S.3     1  UNL1       -0.0756
     21 C         142.4990  143.6352  161.1083 C.ar    1  UNL1        0.2029
     22 N         143.8673  143.8157  161.6959 N.ar    1  UNL1       -0.1250
     23 N         144.6418  142.5522  161.4641 N.ar    1  UNL1       -0.1220
     24 C         143.7522  141.5907  160.7333 C.ar    1  UNL1        0.1933
     25 N         142.4279  142.2599  160.5133 N.ar    1  UNL1       -0.2860
     26 C         141.2409  141.6595  159.8202 C.3     1  UNL1        0.1341
     27 C         141.2135  145.0869  158.4835 C.3     1  UNL1        0.0556
     28 C         140.8048  145.3186  159.9080 C.ar    1  UNL1        0.1001
     29 N         139.7334  146.2583  160.3762 N.ar    1  UNL1       -0.2085
     30 C         139.6622  146.1717  161.8720 C.ar    1  UNL1        0.2849
     31 O         140.6895  145.1786  162.3283 O.2     1  UNL1       -0.4283
     32 C         141.3957  144.6513  161.1145 C.ar    1  UNL1        0.1964
@<TRIPOS>BOND
     1    27    28    1
     2    28    29   ar
     3    29    30   ar
     4    30    31   ar
     5    31    32   ar
     6    32    21    1
     7    21    22   ar
     8    22    23   ar
     9    23    24   ar
    10    24    20    1
    11    20    19    1
    12    19    18    1
    13    18     1    1
    14     1     2    1
    15     2     3    1
    16     3     4    1
    17     4     5    1
    18     5     6    1
    19     6     7    1
    20     7    10    1
    21    10    11   ar
    22    11    12    1
    23    11    13   ar
    24    13    14   ar
    25    14    15   ar
    26    15    16   ar
    27    16    17    1
    28     7     8    1
    29     8     9    1
    30    24    25   ar
    31    25    26    1
    32    32    28   ar
    33    25    21   ar
    34     9     2    1
    35     8     4    1
    36    16    10   ar
@<TRIPOS>MOLECULE
*****
 32 36 0 0 0
SMALL
GASTEIGER

@<TRIPOS>ATOM
      1 C         138.7542  144.7185  163.2565 C.3     1  UNL1        0.0731
      2 N         138.8901  143.5200  164.1482 N.3     1  UNL1       -0.2712
      3 C         138.2495  142.1813  163.9298 C.3     1  UNL1        0.0738
      4 C         138.6541  141.2838  165.0615 C.3     1  UNL1        0.0372
      5 C         138.5082  139.9017  165.6259 C.3     1  UNL1        0.0245
      6 C         139.3087  139.8313  166.8926 C.3     1  UNL1        0.0910
      7 N         139.9494  141.1700  167.1109 N.pl3   1  UNL1       -0.3042
      8 C         139.5448  142.0676  165.9792 C.3     1  UNL1        0.0902
      9 C         139.6906  143.4497  165.4148 C.3     1  UNL1        0.0921
     10 C         140.8384  141.5452  168.2593 C.ar    1  UNL1        0.1034
     11 C         142.2708  141.9139  168.0095 C.ar    1  UNL1        0.1555
     12 F         142.8141  141.9075  166.6114 F       1  UNL1       -0.2028
     13 C         143.1599  142.2891  169.1579 C.ar    1  UNL1        0.0311
     14 C         142.6166  142.2955  170.5560 C.ar    1  UNL1        0.0047
     15 C         141.1842  141.9268  170.8059 C.ar    1  UNL1        0.0311
     16 C         140.2951  141.5516  169.6575 C.ar    1  UNL1        0.1555
     17 F         138.8628  141.1829  169.9072 F       1  UNL1       -0.2028
     18 C         139.9790  145.4399  162.7778 C.3     1  UNL1        0.0294
     19 C         140.3766  145.3661  161.3333 C.3     1  UNL1        0.0666
     20 S         141.5368  144.5111  160.9175 S.3     1  UNL1       -0.0756
     21 C         142.1100  141.1028  162.6840 C.ar    1  UNL1        0.2029
     22 N         141.3699  140.6705  161.4530 N.ar    1  UNL1       -0.1250
     23 N         141.0651  141.8946  160.6414 N.ar    1  UNL1       -0.1220
     24 C         141.6168  143.0835  161.3709 C.ar    1  UNL1        0.1933
     25 N         142.2626  142.5942  162.6333 N.ar    1  UNL1       -0.2860
     26 C         142.9417  143.4466  163.6639 C.3     1  UNL1        0.1341
     27 C         145.2306  140.6696  163.5348 C.3     1  UNL1        0.0556
     28 C         144.0440  140.0028  164.1654 C.ar    1  UNL1        0.1001
     29 N         144.0836  139.0199  165.2977 N.ar    1  UNL1       -0.2085
     30 C         142.6736  138.6115  165.6065 C.ar    1  UNL1        0.2849
     31 O         141.7627  139.3421  164.6650 O.2     1  UNL1       -0.4283
     32 C         142.6097  140.2019  163.7743 C.ar    1  UNL1        0.1964
@<TRIPOS>BOND
     1    27    28    1
     2    28    29   ar
     3    29    30   ar
     4    30    31   ar
     5    31    32   ar
     6    32    21    1
     7    21    22   ar
     8    22    23   ar
     9    23    24   ar
    10    24    20    1
    11    20    19    1
    12    19    18    1
    13    18     1    1
    14     1     2    1
    15     2     3    1
    16     3     4    1
    17     4     5    1
    18     5     6    1
    19     6     7    1
    20     7    10    1
    21    10    11   ar
    22    11    12    1
    23    11    13   ar
    24    13    14   ar
    25    14    15   ar
    26    15    16   ar
    27    16    17    1
    28     7     8    1
    29     8     9    1
    30    24    25   ar
    31    25    26    1
    32    32    28   ar
    33    25    21   ar
    34     9     2    1
    35     8     4    1
    36    16    10   ar
