@<TRIPOS>MOLECULE
*****
 19 20 0 0 0
SMALL
GASTEIGER

@<TRIPOS>ATOM
      1 C         140.5315  140.4776  167.2719 C.ar    1  UNL1        0.0511
      2 C         141.9224  140.0493  166.9088 C.ar    1  UNL1        0.0163
      3 C         142.8112  139.4297  167.9462 C.ar    1  UNL1        0.0253
      4 C         142.3091  139.2384  169.3466 C.ar    1  UNL1        0.1365
      5 C         140.9182  139.6667  169.7097 C.ar    1  UNL1        0.1541
      6 O         140.4160  139.4754  171.1102 O.3     1  UNL1       -0.5039
      7 C         140.0294  140.2863  168.6723 C.ar    1  UNL1        0.0527
      8 H         140.9712  139.0884  171.7582 H       1  UNL1        0.2923
      9 C         138.5838  140.2726  165.5648 C.3     1  UNL1        0.1122
     10 N         139.6427  141.0972  166.2346 N.pl3   1  UNL1       -0.3040
     11 C         139.8127  142.5415  165.8670 C.3     1  UNL1        0.1122
     12 N         143.1979  138.6188  170.3839 N.2     1  UNL1       -0.1435
     13 N         143.6948  137.2150  170.2042 N.2     1  UNL1       -0.1284
     14 C         144.5836  136.5954  171.2416 C.ar    1  UNL1        0.1838
     15 C         144.4819  135.1282  171.5369 C.ar    1  UNL1        0.0406
     16 C         145.3707  134.5086  172.5742 C.ar    1  UNL1        0.0048
     17 C         146.3612  135.3561  173.3163 C.ar    1  UNL1        0.0208
     18 C         146.4629  136.8232  173.0210 C.ar    1  UNL1        0.1006
     19 N         145.5741  137.4428  171.9836 N.ar    1  UNL1       -0.2236
@<TRIPOS>BOND
     1     9    10    1
     2    10    11    1
     3    10     1    1
     4     1     2   ar
     5     2     3   ar
     6     3     4   ar
     7     4    12    1
     8    12    13    2
     9    13    14    1
    10    14    15   ar
    11    15    16   ar
    12    16    17   ar
    13    17    18   ar
    14    18    19   ar
    15     4     5   ar
    16     5     6    1
    17     5     7   ar
    18     7     1   ar
    19    19    14   ar
    20     6     8    1
@<TRIPOS>MOLECULE
*****
 19 20 0 0 0
SMALL
GASTEIGER

@<TRIPOS>ATOM
      1 C         140.6116  140.5903  167.3297 C.ar    1  UNL1        0.0511
      2 C         140.3201  140.7757  168.7894 C.ar    1  UNL1        0.0163
      3 C         141.1982  140.1267  169.8178 C.ar    1  UNL1        0.0253
      4 C         142.3677  139.2924  169.3867 C.ar    1  UNL1        0.1365
      5 C         142.6592  139.1070  167.9270 C.ar    1  UNL1        0.1541
      6 O         143.8288  138.2726  167.4958 O.3     1  UNL1       -0.5039
      7 C         141.7811  139.7560  166.8985 C.ar    1  UNL1        0.0527
      8 H         144.3773  137.8672  168.1382 H       1  UNL1        0.2923
      9 C         139.8415  142.7133  166.0452 C.3     1  UNL1        0.1122
     10 N         139.7335  141.2393  166.3012 N.pl3   1  UNL1       -0.3040
     11 C         138.7473  140.4143  165.5287 C.3     1  UNL1        0.1122
     12 N         143.2458  138.6434  170.4152 N.2     1  UNL1       -0.1435
     13 N         143.7075  137.2293  170.2225 N.2     1  UNL1       -0.1284
     14 C         144.5856  136.5803  171.2510 C.ar    1  UNL1        0.1838
     15 C         144.4502  135.1136  171.5349 C.ar    1  UNL1        0.0406
     16 C         145.3283  134.4646  172.5634 C.ar    1  UNL1        0.0048
     17 C         146.3418  135.2823  173.3080 C.ar    1  UNL1        0.0208
     18 C         146.4771  136.7489  173.0240 C.ar    1  UNL1        0.1006
     19 N         145.5990  137.3979  171.9955 N.ar    1  UNL1       -0.2236
@<TRIPOS>BOND
     1     9    10    1
     2    10    11    1
     3    10     1    1
     4     1     2   ar
     5     2     3   ar
     6     3     4   ar
     7     4    12    1
     8    12    13    2
     9    13    14    1
    10    14    15   ar
    11    15    16   ar
    12    16    17   ar
    13    17    18   ar
    14    18    19   ar
    15     4     5   ar
    16     5     6    1
    17     5     7   ar
    18     7     1   ar
    19    19    14   ar
    20     6     8    1
@<TRIPOS>MOLECULE
*****
 19 20 0 0 0
SMALL
GASTEIGER

@<TRIPOS>ATOM
      1 C         140.4841  141.8691  167.3266 C.ar    1  UNL1        0.0511
      2 C         140.6590  142.2999  168.7527 C.ar    1  UNL1        0.0163
      3 C         140.0000  141.5263  169.8560 C.ar    1  UNL1        0.0253
      4 C         139.1662  140.3220  169.5333 C.ar    1  UNL1        0.1365
      5 C         138.9914  139.8912  168.1072 C.ar    1  UNL1        0.1541
      6 O         138.1575  138.6867  167.7844 O.3     1  UNL1       -0.5039
      7 C         139.6503  140.6647  167.0039 C.ar    1  UNL1        0.0527
      8 H         137.7459  138.2035  168.4736 H       1  UNL1        0.2923
      9 C         140.3104  143.4512  165.2732 C.3     1  UNL1        0.1122
     10 N         141.1431  142.6426  166.2233 N.pl3   1  UNL1       -0.3040
     11 C         142.6348  142.6076  166.0700 C.3     1  UNL1        0.1122
     12 N         138.5072  139.5484  170.6366 N.2     1  UNL1       -0.1435
     13 N         137.1421  138.9621  170.4299 N.2     1  UNL1       -0.1284
     14 C         136.4832  138.1885  171.5332 C.ar    1  UNL1        0.1838
     15 C         135.1890  138.6712  172.1183 C.ar    1  UNL1        0.0406
     16 C         134.5300  137.8976  173.2216 C.ar    1  UNL1        0.0048
     17 C         135.1652  136.6414  173.7399 C.ar    1  UNL1        0.0208
     18 C         136.4593  136.1588  173.1549 C.ar    1  UNL1        0.1006
     19 N         137.1183  136.9324  172.0515 N.ar    1  UNL1       -0.2236
@<TRIPOS>BOND
     1     9    10    1
     2    10    11    1
     3    10     1    1
     4     1     2   ar
     5     2     3   ar
     6     3     4   ar
     7     4    12    1
     8    12    13    2
     9    13    14    1
    10    14    15   ar
    11    15    16   ar
    12    16    17   ar
    13    17    18   ar
    14    18    19   ar
    15     4     5   ar
    16     5     6    1
    17     5     7   ar
    18     7     1   ar
    19    19    14   ar
    20     6     8    1
@<TRIPOS>MOLECULE
*****
 19 20 0 0 0
SMALL
GASTEIGER

@<TRIPOS>ATOM
      1 C         138.8733  138.9063  165.0778 C.ar    1  UNL1        0.0511
      2 C         138.1191  139.7334  164.0792 C.ar    1  UNL1        0.0163
      3 C         138.3911  139.5714  162.6130 C.ar    1  UNL1        0.0253
      4 C         139.4172  138.5824  162.1453 C.ar    1  UNL1        0.1365
      5 C         140.1713  137.7553  163.1439 C.ar    1  UNL1        0.1541
      6 O         141.1975  136.7661  162.6762 O.3     1  UNL1       -0.5039
      7 C         139.8994  137.9172  164.6101 C.ar    1  UNL1        0.0527
      8 H         141.3674  136.6649  161.7603 H       1  UNL1        0.2923
      9 C         137.4738  138.3152  167.1853 C.3     1  UNL1        0.1122
     10 N         138.6013  139.0683  166.5440 N.pl3   1  UNL1       -0.3040
     11 C         139.4569  139.9834  167.3689 C.3     1  UNL1        0.1122
     12 N         139.6892  138.4204  160.6791 N.2     1  UNL1       -0.1435
     13 N         141.0950  138.5061  160.1631 N.2     1  UNL1       -0.1284
     14 C         141.3670  138.3441  158.6969 C.ar    1  UNL1        0.1838
     15 C         142.7471  138.5816  158.1594 C.ar    1  UNL1        0.0406
     16 C         143.0191  138.4196  156.6932 C.ar    1  UNL1        0.0048
     17 C         141.9109  138.0201  155.7645 C.ar    1  UNL1        0.0208
     18 C         140.5308  137.7827  156.3020 C.ar    1  UNL1        0.1006
     19 N         140.2589  137.9446  157.7682 N.ar    1  UNL1       -0.2236
@<TRIPOS>BOND
     1     9    10    1
     2    10    11    1
     3    10     1    1
     4     1     2   ar
     5     2     3   ar
     6     3     4   ar
     7     4    12    1
     8    12    13    2
     9    13    14    1
    10    14    15   ar
    11    15    16   ar
    12    16    17   ar
    13    17    18   ar
    14    18    19   ar
    15     4     5   ar
    16     5     6    1
    17     5     7   ar
    18     7     1   ar
    19    19    14   ar
    20     6     8    1
@<TRIPOS>MOLECULE
*****
 19 20 0 0 0
SMALL
GASTEIGER

@<TRIPOS>ATOM
      1 C         144.3985  141.2206  161.6208 C.ar    1  UNL1        0.0511
      2 C         144.0023  141.6621  160.2431 C.ar    1  UNL1        0.0163
      3 C         143.5523  140.6501  159.2315 C.ar    1  UNL1        0.0253
      4 C         143.4985  139.1965  159.5976 C.ar    1  UNL1        0.1365
      5 C         143.8947  138.7549  160.9753 C.ar    1  UNL1        0.1541
      6 O         143.8409  137.3012  161.3414 O.3     1  UNL1       -0.5039
      7 C         144.3447  139.7669  161.9868 C.ar    1  UNL1        0.0527
      8 H         143.5598  136.6690  160.7095 H       1  UNL1        0.2923
      9 C         145.7042  141.8078  163.7887 C.3     1  UNL1        0.1122
     10 N         144.8485  142.2326  162.6323 N.pl3   1  UNL1       -0.3040
     11 C         144.4428  143.6694  162.4875 C.3     1  UNL1        0.1122
     12 N         143.0484  138.1845  158.5860 N.2     1  UNL1       -0.1435
     13 N         143.4673  138.3199  157.1521 N.2     1  UNL1       -0.1284
     14 C         143.0173  137.3078  156.1406 C.ar    1  UNL1        0.1838
     15 C         143.8332  136.0719  155.9020 C.ar    1  UNL1        0.0406
     16 C         143.3832  135.0599  154.8904 C.ar    1  UNL1        0.0048
     17 C         142.1173  135.2838  154.1174 C.ar    1  UNL1        0.0208
     18 C         141.3015  136.5197  154.3560 C.ar    1  UNL1        0.1006
     19 N         141.7515  137.5317  155.3676 N.ar    1  UNL1       -0.2236
@<TRIPOS>BOND
     1     9    10    1
     2    10    11    1
     3    10     1    1
     4     1     2   ar
     5     2     3   ar
     6     3     4   ar
     7     4    12    1
     8    12    13    2
     9    13    14    1
    10    14    15   ar
    11    15    16   ar
    12    16    17   ar
    13    17    18   ar
    14    18    19   ar
    15     4     5   ar
    16     5     6    1
    17     5     7   ar
    18     7     1   ar
    19    19    14   ar
    20     6     8    1
@<TRIPOS>MOLECULE
*****
 19 20 0 0 0
SMALL
GASTEIGER

@<TRIPOS>ATOM
      1 C         138.5316  139.2424  164.5079 C.ar    1  UNL1        0.0511
      2 C         138.6761  138.0498  163.6096 C.ar    1  UNL1        0.0163
      3 C         138.3698  138.1715  162.1463 C.ar    1  UNL1        0.0253
      4 C         137.9189  139.4858  161.5812 C.ar    1  UNL1        0.1365
      5 C         137.7744  140.6783  162.4794 C.ar    1  UNL1        0.1541
      6 O         137.3235  141.9927  161.9144 O.3     1  UNL1       -0.5039
      7 C         138.0807  140.5566  163.9428 C.ar    1  UNL1        0.0527
      8 H         137.1321  142.0687  161.0003 H       1  UNL1        0.2923
      9 C         140.1675  139.5718  166.4992 C.3     1  UNL1        0.1122
     10 N         138.8379  139.1207  165.9712 N.pl3   1  UNL1       -0.3040
     11 C         137.8147  138.5479  166.9066 C.3     1  UNL1        0.1122
     12 N         137.6126  139.6075  160.1179 N.2     1  UNL1       -0.1435
     13 N         138.3842  140.5729  159.2679 N.2     1  UNL1       -0.1284
     14 C         138.0778  140.6946  157.8045 C.ar    1  UNL1        0.1838
     15 C         137.3687  141.9102  157.2853 C.ar    1  UNL1        0.0406
     16 C         137.0623  142.0319  155.8219 C.ar    1  UNL1        0.0048
     17 C         137.4652  140.9380  154.8778 C.ar    1  UNL1        0.0208
     18 C         138.1743  139.7225  155.3971 C.ar    1  UNL1        0.1006
     19 N         138.4806  139.6008  156.8604 N.ar    1  UNL1       -0.2236
@<TRIPOS>BOND
     1     9    10    1
     2    10    11    1
     3    10     1    1
     4     1     2   ar
     5     2     3   ar
     6     3     4   ar
     7     4    12    1
     8    12    13    2
     9    13    14    1
    10    14    15   ar
    11    15    16   ar
    12    16    17   ar
    13    17    18   ar
    14    18    19   ar
    15     4     5   ar
    16     5     6    1
    17     5     7   ar
    18     7     1   ar
    19    19    14   ar
    20     6     8    1
@<TRIPOS>MOLECULE
*****
 19 20 0 0 0
SMALL
GASTEIGER

@<TRIPOS>ATOM
      1 C         142.7359  132.7692  156.0200 C.ar    1  UNL1        0.0511
      2 C         143.2046  133.3716  157.3113 C.ar    1  UNL1        0.0163
      3 C         143.5297  134.8342  157.3822 C.ar    1  UNL1        0.0253
      4 C         143.3861  135.6945  156.1619 C.ar    1  UNL1        0.1365
      5 C         142.9175  135.0921  154.8706 C.ar    1  UNL1        0.1541
      6 O         142.7739  135.9524  153.6502 O.3     1  UNL1       -0.5039
      7 C         142.5924  133.6295  154.7996 C.ar    1  UNL1        0.0527
      8 H         142.9770  136.8661  153.6945 H       1  UNL1        0.2923
      9 C         141.3309  130.8222  155.0277 C.3     1  UNL1        0.1122
     10 N         142.4108  131.3066  155.9490 N.pl3   1  UNL1       -0.3040
     11 C         143.1656  130.3284  156.7995 C.3     1  UNL1        0.1122
     12 N         143.7113  137.1571  156.2328 N.2     1  UNL1       -0.1435
     13 N         144.7796  137.7316  155.3505 N.2     1  UNL1       -0.1284
     14 C         145.1047  139.1942  155.4214 C.ar    1  UNL1        0.1838
     15 C         145.4260  139.9528  154.1678 C.ar    1  UNL1        0.0406
     16 C         145.7511  141.4154  154.2388 C.ar    1  UNL1        0.0048
     17 C         145.7549  142.1195  155.5633 C.ar    1  UNL1        0.0208
     18 C         145.4337  141.3609  156.8168 C.ar    1  UNL1        0.1006
     19 N         145.1085  139.8983  156.7459 N.ar    1  UNL1       -0.2236
@<TRIPOS>BOND
     1     9    10    1
     2    10    11    1
     3    10     1    1
     4     1     2   ar
     5     2     3   ar
     6     3     4   ar
     7     4    12    1
     8    12    13    2
     9    13    14    1
    10    14    15   ar
    11    15    16   ar
    12    16    17   ar
    13    17    18   ar
    14    18    19   ar
    15     4     5   ar
    16     5     6    1
    17     5     7   ar
    18     7     1   ar
    19    19    14   ar
    20     6     8    1
@<TRIPOS>MOLECULE
*****
 19 20 0 0 0
SMALL
GASTEIGER

@<TRIPOS>ATOM
      1 C         139.2727  142.8317  160.5114 C.ar    1  UNL1        0.0511
      2 C         140.4096  143.2569  161.3926 C.ar    1  UNL1        0.0163
      3 C         140.3139  143.0781  162.8789 C.ar    1  UNL1        0.0253
      4 C         139.0814  142.4742  163.4838 C.ar    1  UNL1        0.1365
      5 C         137.9445  142.0490  162.6026 C.ar    1  UNL1        0.1541
      6 O         136.7118  141.4451  163.2076 O.3     1  UNL1       -0.5039
      7 C         138.0401  142.2278  161.1164 C.ar    1  UNL1        0.0527
      8 H         136.6521  141.3334  164.1360 H       1  UNL1        0.2923
      9 C         140.5935  143.6306  158.4216 C.3     1  UNL1        0.1122
     10 N         139.3683  143.0105  159.0251 N.pl3   1  UNL1       -0.3040
     11 C         138.2388  142.5691  158.1424 C.3     1  UNL1        0.1122
     12 N         138.9857  142.2954  164.9701 N.2     1  UNL1       -0.1435
     13 N         140.2042  141.9202  165.7603 N.2     1  UNL1       -0.1284
     14 C         140.1086  141.7415  167.2465 C.ar    1  UNL1        0.1838
     15 C         139.6651  140.4268  167.8168 C.ar    1  UNL1        0.0406
     16 C         139.5695  140.2481  169.3031 C.ar    1  UNL1        0.0048
     17 C         139.9173  141.3839  170.2190 C.ar    1  UNL1        0.0208
     18 C         140.3606  142.6985  169.6487 C.ar    1  UNL1        0.1006
     19 N         140.4563  142.8773  168.1625 N.ar    1  UNL1       -0.2236
@<TRIPOS>BOND
     1     9    10    1
     2    10    11    1
     3    10     1    1
     4     1     2   ar
     5     2     3   ar
     6     3     4   ar
     7     4    12    1
     8    12    13    2
     9    13    14    1
    10    14    15   ar
    11    15    16   ar
    12    16    17   ar
    13    17    18   ar
    14    18    19   ar
    15     4     5   ar
    16     5     6    1
    17     5     7   ar
    18     7     1   ar
    19    19    14   ar
    20     6     8    1
@<TRIPOS>MOLECULE
*****
 19 20 0 0 0
SMALL
GASTEIGER

@<TRIPOS>ATOM
      1 C         143.8452  140.0319  163.0767 C.ar    1  UNL1        0.0511
      2 C         144.4404  140.2286  161.7140 C.ar    1  UNL1        0.0163
      3 C         144.0680  139.3049  160.5924 C.ar    1  UNL1        0.0253
      4 C         143.1004  138.1843  160.8335 C.ar    1  UNL1        0.1365
      5 C         142.5052  137.9876  162.1962 C.ar    1  UNL1        0.1541
      6 O         141.5376  136.8670  162.4373 O.3     1  UNL1       -0.5039
      7 C         142.8776  138.9113  163.3178 C.ar    1  UNL1        0.0527
      8 H         141.3050  136.2899  161.7367 H       1  UNL1        0.2923
      9 C         145.4201  141.8431  164.0711 C.3     1  UNL1        0.1122
     10 N         144.2176  140.9556  164.1983 N.pl3   1  UNL1       -0.3040
     11 C         143.3874  140.9919  165.4470 C.3     1  UNL1        0.1122
     12 N         142.7280  137.2606  159.7119 N.2     1  UNL1       -0.1435
     13 N         142.9260  137.6909  158.2887 N.2     1  UNL1       -0.1284
     14 C         142.5536  136.7671  157.1671 C.ar    1  UNL1        0.1838
     15 C         141.2433  136.9392  156.4574 C.ar    1  UNL1        0.0406
     16 C         140.8710  136.0154  155.3358 C.ar    1  UNL1        0.0048
     17 C         141.8089  134.9196  154.9239 C.ar    1  UNL1        0.0208
     18 C         143.1191  134.7476  155.6335 C.ar    1  UNL1        0.1006
     19 N         143.4915  135.6714  156.7551 N.ar    1  UNL1       -0.2236
@<TRIPOS>BOND
     1     9    10    1
     2    10    11    1
     3    10     1    1
     4     1     2   ar
     5     2     3   ar
     6     3     4   ar
     7     4    12    1
     8    12    13    2
     9    13    14    1
    10    14    15   ar
    11    15    16   ar
    12    16    17   ar
    13    17    18   ar
    14    18    19   ar
    15     4     5   ar
    16     5     6    1
    17     5     7   ar
    18     7     1   ar
    19    19    14   ar
    20     6     8    1
