@<TRIPOS>MOLECULE
*****
 39 43 0 0 0
SMALL
GASTEIGER

@<TRIPOS>ATOM
      1 C         138.4827  140.3516  158.3973 C.2     1  UNL1        0.4052
      2 O         137.1590  140.6250  157.7469 O.2     1  UNL1       -0.2262
      3 N         138.5341  139.8202  159.7990 N.am    1  UNL1       -0.2460
      4 C         139.7769  139.5007  160.5758 C.3     1  UNL1        0.0968
      5 C         139.3626  138.9980  161.9269 C.3     1  UNL1        0.0234
      6 C         138.6576  138.5422  163.1700 C.3     1  UNL1        0.0230
      7 C         137.8637  139.0068  161.9853 C.3     1  UNL1        0.0234
      8 C         137.3517  139.5150  160.6701 C.3     1  UNL1        0.0968
      9 O         139.7551  140.6097  157.6459 O.3     1  UNL1       -0.4295
     10 C         140.4072  141.9587  157.7161 C.3     1  UNL1        0.2367
     11 C         142.6209  142.6873  160.9284 C.ar    1  UNL1        0.0685
     12 C         142.1826  142.1340  159.6048 C.ar    1  UNL1        0.0096
     13 C         140.8455  142.5119  159.0396 C.ar    1  UNL1        0.0222
     14 C         139.9467  143.4430  159.7980 C.ar    1  UNL1        0.0058
     15 C         140.3849  143.9962  161.1216 C.ar    1  UNL1        0.0763
     16 C         141.7220  143.6184  161.6867 C.ar    1  UNL1        0.0167
     17 N         145.2950  141.9317  162.0587 N.1     1  UNL1       -0.1908
     18 C         143.9579  142.3095  161.4935 C.1     1  UNL1        0.1004
     19 C         139.4861  144.9273  161.8800 C.2     1  UNL1        0.3466
     20 O         139.9141  146.3425  162.1332 O.2     1  UNL1       -0.2447
     21 O         138.1594  144.4432  162.3853 O.3     1  UNL1       -0.3701
     22 C         138.0952  143.2753  163.3244 C.3     1  UNL1        0.5774
     23 F         138.0310  142.1074  164.2635 F       1  UNL1       -0.1328
     24 F         137.5765  142.4107  162.2137 F       1  UNL1       -0.1328
     25 F         138.6139  144.1399  164.4351 F       1  UNL1       -0.1328
     26 C         138.7090  138.0107  164.5719 C.3     1  UNL1        0.0897
     27 N         138.7977  138.9590  165.7307 N.am    1  UNL1       -0.3011
     28 C         140.0821  139.6806  166.0127 C.2     1  UNL1        0.2422
     29 O         141.2778  139.4539  165.1359 O.2     1  UNL1       -0.2705
     30 H         138.0129  139.1078  166.3062 H       1  UNL1        0.1497
     31 C         140.1707  140.6289  167.1716 C.2     1  UNL1        0.0373
     32 C         140.2945  142.1034  166.9263 C.2     1  UNL1        0.0022
     33 C         140.3831  143.0517  168.0852 C.2     1  UNL1        0.0221
     34 C         140.3480  142.5253  169.4893 C.2     1  UNL1        0.1201
     35 N         140.4156  143.2127  170.8209 N.2     1  UNL1       -0.1274
     36 N         140.3337  142.1628  171.8891 N.2     1  UNL1       -0.0424
     37 N         140.2154  140.8266  171.2177 N.2     1  UNL1       -0.1312
     38 C         140.2243  141.0507  169.7346 C.2     1  UNL1        0.1060
     39 C         140.1356  140.1025  168.5757 C.3     1  UNL1        0.0802
@<TRIPOS>BOND
     1    17    18    3
     2    18    11    1
     3    11    12   ar
     4    12    13   ar
     5    13    10    1
     6    10     9    1
     7     9     1    1
     8     1     2    2
     9     1     3   am
    10     3     4    1
    11     5     4    1
    12     5     6    1
    13     6    26    1
    14    26    27    1
    15    27    28   am
    16    28    29    2
    17    28    31    1
    18    31    32    2
    19    32    33    1
    20    33    34    2
    21    34    35    1
    22    35    36    2
    23    36    37    1
    24    37    38    2
    25    38    39    1
    26     6     7    1
    27     7     8    1
    28    13    14   ar
    29    14    15   ar
    30    15    19    1
    31    19    20    2
    32    19    21    1
    33    21    22    1
    34    22    23    1
    35    22    24    1
    36    22    25    1
    37    15    16   ar
    38    16    11   ar
    39     8     3    1
    40     7     5    1
    41    39    31    1
    42    38    34    1
    43    27    30    1
@<TRIPOS>MOLECULE
*****
 39 43 0 0 0
SMALL
GASTEIGER

@<TRIPOS>ATOM
      1 C         143.8587  140.5316  160.0951 C.2     1  UNL1        0.4052
      2 O         143.3378  139.6891  158.9688 O.2     1  UNL1       -0.2262
      3 N         143.8455  140.0002  161.4977 N.am    1  UNL1       -0.2460
      4 C         144.3305  140.7231  162.7192 C.3     1  UNL1        0.0968
      5 C         144.1296  139.8221  163.9014 C.3     1  UNL1        0.0234
      6 C         143.8135  138.7219  164.8707 C.3     1  UNL1        0.0230
      7 C         143.5204  138.5422  163.4107 C.3     1  UNL1        0.0234
      8 C         143.3447  138.6523  161.9251 C.3     1  UNL1        0.0968
      9 O         144.3930  141.9058  159.8188 O.3     1  UNL1       -0.4295
     10 C         143.4627  143.0823  159.7989 C.3     1  UNL1        0.2367
     11 C         143.3693  144.2580  163.5882 C.ar    1  UNL1        0.0685
     12 C         143.8581  143.6665  162.2993 C.ar    1  UNL1        0.0096
     13 C         142.9739  143.6738  161.0877 C.ar    1  UNL1        0.0222
     14 C         141.6008  144.2727  161.1649 C.ar    1  UNL1        0.0058
     15 C         141.1119  144.8643  162.4537 C.ar    1  UNL1        0.0763
     16 C         141.9961  144.8569  163.6653 C.ar    1  UNL1        0.0167
     17 N         145.1377  144.2435  166.0114 N.1     1  UNL1       -0.1908
     18 C         144.2534  144.2507  164.7998 C.1     1  UNL1        0.1004
     19 C         139.7388  145.4632  162.5309 C.2     1  UNL1        0.3466
     20 O         139.2100  146.2768  161.3871 O.2     1  UNL1       -0.2447
     21 O         138.8945  145.2484  163.7520 O.3     1  UNL1       -0.3701
     22 C         138.1772  143.9459  163.9483 C.3     1  UNL1        0.5774
     23 F         137.4598  142.6433  164.1447 F       1  UNL1       -0.1328
     24 F         137.8872  143.8839  162.4779 F       1  UNL1       -0.1328
     25 F         138.4671  144.0079  165.4188 F       1  UNL1       -0.1328
     26 C         143.8002  138.1903  166.2734 C.3     1  UNL1        0.0897
     27 N         143.2171  139.0148  167.3824 N.am    1  UNL1       -0.3011
     28 C         141.8308  139.5729  167.2529 C.2     1  UNL1        0.2422
     29 O         141.0277  139.3065  166.0145 O.2     1  UNL1       -0.2705
     30 H         143.7442  139.1897  168.1953 H       1  UNL1        0.1497
     31 C         141.2477  140.3975  168.3621 C.2     1  UNL1        0.0373
     32 C         140.8811  139.7506  169.6647 C.2     1  UNL1        0.0022
     33 C         140.2980  140.5752  170.7738 C.2     1  UNL1        0.0221
     34 C         140.0815  142.0468  170.5802 C.2     1  UNL1        0.1201
     35 N         139.5292  143.1076  171.4854 N.2     1  UNL1       -0.1274
     36 N         139.5545  144.4103  170.7422 N.2     1  UNL1       -0.0424
     37 N         140.1224  144.1545  169.3776 N.2     1  UNL1       -0.1312
     38 C         140.4482  142.6937  169.2775 C.2     1  UNL1        0.1060
     39 C         141.0312  141.8691  168.1684 C.3     1  UNL1        0.0802
@<TRIPOS>BOND
     1    17    18    3
     2    18    11    1
     3    11    12   ar
     4    12    13   ar
     5    13    10    1
     6    10     9    1
     7     9     1    1
     8     1     2    2
     9     1     3   am
    10     3     4    1
    11     5     4    1
    12     5     6    1
    13     6    26    1
    14    26    27    1
    15    27    28   am
    16    28    29    2
    17    28    31    1
    18    31    32    2
    19    32    33    1
    20    33    34    2
    21    34    35    1
    22    35    36    2
    23    36    37    1
    24    37    38    2
    25    38    39    1
    26     6     7    1
    27     7     8    1
    28    13    14   ar
    29    14    15   ar
    30    15    19    1
    31    19    20    2
    32    19    21    1
    33    21    22    1
    34    22    23    1
    35    22    24    1
    36    22    25    1
    37    15    16   ar
    38    16    11   ar
    39     8     3    1
    40     7     5    1
    41    39    31    1
    42    38    34    1
    43    27    30    1
@<TRIPOS>MOLECULE
*****
 39 43 0 0 0
SMALL
GASTEIGER

@<TRIPOS>ATOM
      1 C         143.0277  139.2744  158.3125 C.2     1  UNL1        0.4052
      2 O         142.1046  138.9878  157.1655 O.2     1  UNL1       -0.2262
      3 N         142.6196  138.9172  159.7110 N.am    1  UNL1       -0.2460
      4 C         143.4327  139.1418  160.9513 C.3     1  UNL1        0.0968
      5 C         142.6423  138.6361  162.1216 C.3     1  UNL1        0.0234
      6 C         141.6380  138.0581  163.0741 C.3     1  UNL1        0.0230
      7 C         141.3406  138.0989  161.6045 C.3     1  UNL1        0.0234
      8 C         141.3266  138.2726  160.1147 C.3     1  UNL1        0.0968
      9 O         144.3590  139.9182  158.0610 O.3     1  UNL1       -0.4295
     10 C         144.4816  141.4132  158.0634 C.3     1  UNL1        0.2367
     11 C         142.2671  143.8760  160.2498 C.ar    1  UNL1        0.0685
     12 C         142.7714  143.0840  159.0800 C.ar    1  UNL1        0.0096
     13 C         143.9773  142.2052  159.2331 C.ar    1  UNL1        0.0222
     14 C         144.6790  142.1184  160.5560 C.ar    1  UNL1        0.0058
     15 C         144.1747  142.9104  161.7259 C.ar    1  UNL1        0.0763
     16 C         142.9688  143.7892  161.5727 C.ar    1  UNL1        0.0167
     17 N         139.8553  145.6336  159.9436 N.1     1  UNL1       -0.1908
     18 C         141.0612  144.7548  160.0967 C.1     1  UNL1        0.1004
     19 C         144.8764  142.8237  163.0488 C.2     1  UNL1        0.3466
     20 O         145.9678  141.8154  163.2542 O.2     1  UNL1       -0.2447
     21 O         144.4865  143.7452  164.1663 O.3     1  UNL1       -0.3701
     22 C         144.1368  143.1849  165.5131 C.3     1  UNL1        0.5774
     23 F         143.7871  142.6247  166.8598 F       1  UNL1       -0.1328
     24 F         143.0489  142.3625  164.8885 F       1  UNL1       -0.1328
     25 F         145.2247  144.0074  166.1377 F       1  UNL1       -0.1328
     26 C         141.2298  137.7009  164.4727 C.3     1  UNL1        0.0897
     27 N         141.3441  138.7171  165.5701 N.am    1  UNL1       -0.3011
     28 C         140.1123  139.3864  166.1037 C.2     1  UNL1        0.2422
     29 O         138.7663  139.0395  165.5400 O.2     1  UNL1       -0.2705
     30 H         142.2275  138.9449  165.9401 H       1  UNL1        0.1497
     31 C         140.2266  140.4027  167.2011 C.2     1  UNL1        0.0373
     32 C         140.4250  141.8508  166.8645 C.2     1  UNL1        0.0022
     33 C         140.5393  142.8671  167.9619 C.2     1  UNL1        0.0221
     34 C         140.4551  142.4350  169.3959 C.2     1  UNL1        0.1201
     35 N         140.5330  143.2034  170.6818 N.2     1  UNL1       -0.1274
     36 N         140.3826  142.2300  171.8131 N.2     1  UNL1       -0.0424
     37 N         140.2118  140.8601  171.2264 N.2     1  UNL1       -0.1312
     38 C         140.2567  140.9868  169.7324 C.2     1  UNL1        0.1060
     39 C         140.1424  139.9706  168.6350 C.3     1  UNL1        0.0802
@<TRIPOS>BOND
     1    17    18    3
     2    18    11    1
     3    11    12   ar
     4    12    13   ar
     5    13    10    1
     6    10     9    1
     7     9     1    1
     8     1     2    2
     9     1     3   am
    10     3     4    1
    11     5     4    1
    12     5     6    1
    13     6    26    1
    14    26    27    1
    15    27    28   am
    16    28    29    2
    17    28    31    1
    18    31    32    2
    19    32    33    1
    20    33    34    2
    21    34    35    1
    22    35    36    2
    23    36    37    1
    24    37    38    2
    25    38    39    1
    26     6     7    1
    27     7     8    1
    28    13    14   ar
    29    14    15   ar
    30    15    19    1
    31    19    20    2
    32    19    21    1
    33    21    22    1
    34    22    23    1
    35    22    24    1
    36    22    25    1
    37    15    16   ar
    38    16    11   ar
    39     8     3    1
    40     7     5    1
    41    39    31    1
    42    38    34    1
    43    27    30    1
@<TRIPOS>MOLECULE
*****
 39 43 0 0 0
SMALL
GASTEIGER

@<TRIPOS>ATOM
      1 C         139.2860  139.4774  158.6941 C.2     1  UNL1        0.4052
      2 O         140.6044  139.4095  157.9818 O.2     1  UNL1       -0.2262
      3 N         139.1862  139.0527  160.1292 N.am    1  UNL1       -0.2460
      4 C         137.9426  139.0649  160.9678 C.3     1  UNL1        0.0968
      5 C         138.3003  138.5610  162.3346 C.3     1  UNL1        0.0234
      6 C         138.9462  138.0314  163.5805 C.3     1  UNL1        0.0230
      7 C         139.7650  138.2374  162.3408 C.3     1  UNL1        0.0234
      8 C         140.3126  138.5413  160.9777 C.3     1  UNL1        0.0968
      9 O         138.0675  139.9700  157.9712 O.3     1  UNL1       -0.4295
     10 C         137.7999  141.4423  157.8691 C.3     1  UNL1        0.2367
     11 C         140.3833  144.2659  158.9195 C.ar    1  UNL1        0.0685
     12 C         139.6028  143.3015  158.0765 C.ar    1  UNL1        0.0096
     13 C         138.5804  142.4067  158.7122 C.ar    1  UNL1        0.0222
     14 C         138.3386  142.4762  160.1909 C.ar    1  UNL1        0.0058
     15 C         139.1191  143.4406  161.0340 C.ar    1  UNL1        0.0763
     16 C         140.1415  144.3354  160.3983 C.ar    1  UNL1        0.0167
     17 N         142.4280  146.0555  157.6482 N.1     1  UNL1       -0.1908
     18 C         141.4056  145.1607  158.2839 C.1     1  UNL1        0.1004
     19 C         138.8774  143.5101  162.5127 C.2     1  UNL1        0.3466
     20 O         137.4970  143.7777  163.0353 O.2     1  UNL1       -0.2447
     21 O         140.0160  143.3122  163.4690 O.3     1  UNL1       -0.3701
     22 C         140.9034  142.1098  163.3399 C.3     1  UNL1        0.5774
     23 F         141.7910  140.9075  163.2108 F       1  UNL1       -0.1328
     24 F         139.7405  141.2172  163.6572 F       1  UNL1       -0.1328
     25 F         142.0665  143.0025  163.0225 F       1  UNL1       -0.1328
     26 C         138.8465  137.6067  165.0158 C.3     1  UNL1        0.0897
     27 N         138.9279  138.6311  166.1084 N.am    1  UNL1       -0.3011
     28 C         140.2168  139.3549  166.3634 C.2     1  UNL1        0.2422
     29 O         141.4241  139.0543  165.5257 O.2     1  UNL1       -0.2705
     30 H         138.1355  138.8285  166.6583 H       1  UNL1        0.1497
     31 C         140.2982  140.3793  167.4561 C.2     1  UNL1        0.0373
     32 C         140.3499  141.8387  167.1136 C.2     1  UNL1        0.0022
     33 C         140.4313  142.8631  168.2064 C.2     1  UNL1        0.0221
     34 C         140.4610  142.4280  169.6416 C.2     1  UNL1        0.1201
     35 N         140.5380  143.2026  170.9238 N.2     1  UNL1       -0.1274
     36 N         140.5338  142.2218  172.0587 N.2     1  UNL1       -0.0424
     37 N         140.4542  140.8411  171.4779 N.2     1  UNL1       -0.1312
     38 C         140.4093  140.9685  169.9840 C.2     1  UNL1        0.1060
     39 C         140.3278  139.9442  168.8913 C.3     1  UNL1        0.0802
@<TRIPOS>BOND
     1    17    18    3
     2    18    11    1
     3    11    12   ar
     4    12    13   ar
     5    13    10    1
     6    10     9    1
     7     9     1    1
     8     1     2    2
     9     1     3   am
    10     3     4    1
    11     5     4    1
    12     5     6    1
    13     6    26    1
    14    26    27    1
    15    27    28   am
    16    28    29    2
    17    28    31    1
    18    31    32    2
    19    32    33    1
    20    33    34    2
    21    34    35    1
    22    35    36    2
    23    36    37    1
    24    37    38    2
    25    38    39    1
    26     6     7    1
    27     7     8    1
    28    13    14   ar
    29    14    15   ar
    30    15    19    1
    31    19    20    2
    32    19    21    1
    33    21    22    1
    34    22    23    1
    35    22    24    1
    36    22    25    1
    37    15    16   ar
    38    16    11   ar
    39     8     3    1
    40     7     5    1
    41    39    31    1
    42    38    34    1
    43    27    30    1
@<TRIPOS>MOLECULE
*****
 39 43 0 0 0
SMALL
GASTEIGER

@<TRIPOS>ATOM
      1 C         138.6349  140.0092  158.4190 C.2     1  UNL1        0.4052
      2 O         137.3677  140.5499  157.8260 O.2     1  UNL1       -0.2262
      3 N         138.6575  139.5456  159.8454 N.am    1  UNL1       -0.2460
      4 C         139.8441  138.9845  160.5715 C.3     1  UNL1        0.0968
      5 C         139.4173  138.6539  161.9709 C.3     1  UNL1        0.0234
      6 C         138.7116  138.4308  163.2756 C.3     1  UNL1        0.0230
      7 C         137.9669  139.0107  162.1098 C.3     1  UNL1        0.0234
      8 C         137.4973  139.5618  160.7961 C.3     1  UNL1        0.0968
      9 O         139.8797  139.9320  157.5855 O.3     1  UNL1       -0.4295
     10 C         140.8510  141.0750  157.5803 C.3     1  UNL1        0.2367
     11 C         141.4403  143.3252  160.7959 C.ar    1  UNL1        0.0685
     12 C         140.8682  142.8212  159.5041 C.ar    1  UNL1        0.0096
     13 C         141.4230  141.5790  158.8722 C.ar    1  UNL1        0.0222
     14 C         142.5498  140.8409  159.5320 C.ar    1  UNL1        0.0058
     15 C         143.1219  141.3448  160.8238 C.ar    1  UNL1        0.0763
     16 C         142.5671  142.5869  161.4557 C.ar    1  UNL1        0.0167
     17 N         140.3308  145.8093  162.0598 N.1     1  UNL1       -0.1908
     18 C         140.8856  144.5672  161.4278 C.1     1  UNL1        0.1004
     19 C         144.2487  140.6067  161.4837 C.2     1  UNL1        0.3466
     20 O         145.3272  141.3668  162.1972 O.2     1  UNL1       -0.2447
     21 O         144.2970  139.1084  161.4302 O.3     1  UNL1       -0.3701
     22 C         143.2935  138.2978  162.1955 C.3     1  UNL1        0.5774
     23 F         142.2900  137.4872  162.9609 F       1  UNL1       -0.1328
     24 F         142.8367  137.6573  160.9184 F       1  UNL1       -0.1328
     25 F         143.7502  138.9384  163.4727 F       1  UNL1       -0.1328
     26 C         138.7341  137.9673  164.7021 C.3     1  UNL1        0.0897
     27 N         138.8199  138.9692  165.8150 N.am    1  UNL1       -0.3011
     28 C         140.1584  139.4632  166.2779 C.2     1  UNL1        0.2422
     29 O         141.4111  138.9553  165.6278 O.2     1  UNL1       -0.2705
     30 H         137.9977  139.3026  166.2417 H       1  UNL1        0.1497
     31 C         140.2441  140.4653  167.3909 C.2     1  UNL1        0.0373
     32 C         140.3534  141.9278  167.0766 C.2     1  UNL1        0.0022
     33 C         140.4391  142.9298  168.1896 C.2     1  UNL1        0.0221
     34 C         140.4156  142.4691  169.6169 C.2     1  UNL1        0.1201
     35 N         140.4835  143.2183  170.9146 N.2     1  UNL1       -0.1274
     36 N         140.4163  142.2186  172.0310 N.2     1  UNL1       -0.0424
     37 N         140.3067  140.8517  171.4232 N.2     1  UNL1       -0.1312
     38 C         140.3064  141.0064  169.9312 C.2     1  UNL1        0.1060
     39 C         140.2206  140.0045  168.8182 C.3     1  UNL1        0.0802
@<TRIPOS>BOND
     1    17    18    3
     2    18    11    1
     3    11    12   ar
     4    12    13   ar
     5    13    10    1
     6    10     9    1
     7     9     1    1
     8     1     2    2
     9     1     3   am
    10     3     4    1
    11     5     4    1
    12     5     6    1
    13     6    26    1
    14    26    27    1
    15    27    28   am
    16    28    29    2
    17    28    31    1
    18    31    32    2
    19    32    33    1
    20    33    34    2
    21    34    35    1
    22    35    36    2
    23    36    37    1
    24    37    38    2
    25    38    39    1
    26     6     7    1
    27     7     8    1
    28    13    14   ar
    29    14    15   ar
    30    15    19    1
    31    19    20    2
    32    19    21    1
    33    21    22    1
    34    22    23    1
    35    22    24    1
    36    22    25    1
    37    15    16   ar
    38    16    11   ar
    39     8     3    1
    40     7     5    1
    41    39    31    1
    42    38    34    1
    43    27    30    1
@<TRIPOS>MOLECULE
*****
 39 43 0 0 0
SMALL
GASTEIGER

@<TRIPOS>ATOM
      1 C         143.0041  143.5636  158.4805 C.2     1  UNL1        0.4052
      2 O         143.1281  142.8087  157.1903 O.2     1  UNL1       -0.2262
      3 N         143.3760  142.9029  159.7748 N.am    1  UNL1       -0.2460
      4 C         143.3050  143.5284  161.1363 C.3     1  UNL1        0.0968
      5 C         143.7694  142.5128  162.1377 C.3     1  UNL1        0.0234
      6 C         144.2705  141.3140  162.8872 C.3     1  UNL1        0.0230
      7 C         144.1274  141.2596  161.3951 C.3     1  UNL1        0.0234
      8 C         143.8843  141.5007  159.9347 C.3     1  UNL1        0.0968
      9 O         142.5080  144.9792  158.4765 O.3     1  UNL1       -0.4295
     10 C         141.0367  145.2588  158.5606 C.3     1  UNL1        0.2367
     11 C         138.5024  142.2075  158.6911 C.ar    1  UNL1        0.0685
     12 C         139.4351  143.2535  158.1562 C.ar    1  UNL1        0.0096
     13 C         140.1040  144.2128  159.0955 C.ar    1  UNL1        0.0222
     14 C         139.8402  144.1263  160.5695 C.ar    1  UNL1        0.0058
     15 C         138.9075  143.0804  161.1044 C.ar    1  UNL1        0.0763
     16 C         138.2386  142.1211  160.1652 C.ar    1  UNL1        0.0167
     17 N         137.1644  140.2888  156.8127 N.1     1  UNL1       -0.1908
     18 C         137.8334  141.2482  157.7519 C.1     1  UNL1        0.1004
     19 C         138.6436  142.9939  162.5785 C.2     1  UNL1        0.3466
     20 O         139.1283  141.8080  163.3588 O.2     1  UNL1       -0.2447
     21 O         137.8951  144.0932  163.2723 O.3     1  UNL1       -0.3701
     22 C         138.4093  144.6498  164.5667 C.3     1  UNL1        0.5774
     23 F         138.9236  145.2064  165.8612 F       1  UNL1       -0.1328
     24 F         137.1239  144.2708  165.2404 F       1  UNL1       -0.1328
     25 F         139.6949  145.0288  163.8930 F       1  UNL1       -0.1328
     26 C         144.6425  140.6533  164.1815 C.3     1  UNL1        0.0897
     27 N         143.6442  140.5763  165.2984 N.am    1  UNL1       -0.3011
     28 C         143.3785  141.7813  166.1512 C.2     1  UNL1        0.2422
     29 O         144.1111  143.0632  165.8872 O.2     1  UNL1       -0.2705
     30 H         143.1633  139.7349  165.4717 H       1  UNL1        0.1497
     31 C         142.3801  141.7042  167.2681 C.2     1  UNL1        0.0373
     32 C         141.0298  141.0976  167.0265 C.2     1  UNL1        0.0022
     33 C         140.0314  141.0205  168.1434 C.2     1  UNL1        0.0221
     34 C         140.3835  141.5502  169.5019 C.2     1  UNL1        0.1201
     35 N         139.6113  141.6113  170.7864 N.2     1  UNL1       -0.1274
     36 N         140.4845  142.2557  171.8219 N.2     1  UNL1       -0.0424
     37 N         141.7963  142.5929  171.1773 N.2     1  UNL1       -0.1312
     38 C         141.7339  142.1569  169.7435 C.2     1  UNL1        0.1060
     39 C         142.7322  142.2339  168.6266 C.3     1  UNL1        0.0802
@<TRIPOS>BOND
     1    17    18    3
     2    18    11    1
     3    11    12   ar
     4    12    13   ar
     5    13    10    1
     6    10     9    1
     7     9     1    1
     8     1     2    2
     9     1     3   am
    10     3     4    1
    11     5     4    1
    12     5     6    1
    13     6    26    1
    14    26    27    1
    15    27    28   am
    16    28    29    2
    17    28    31    1
    18    31    32    2
    19    32    33    1
    20    33    34    2
    21    34    35    1
    22    35    36    2
    23    36    37    1
    24    37    38    2
    25    38    39    1
    26     6     7    1
    27     7     8    1
    28    13    14   ar
    29    14    15   ar
    30    15    19    1
    31    19    20    2
    32    19    21    1
    33    21    22    1
    34    22    23    1
    35    22    24    1
    36    22    25    1
    37    15    16   ar
    38    16    11   ar
    39     8     3    1
    40     7     5    1
    41    39    31    1
    42    38    34    1
    43    27    30    1
@<TRIPOS>MOLECULE
*****
 39 43 0 0 0
SMALL
GASTEIGER

@<TRIPOS>ATOM
      1 C         142.9404  139.7871  159.0015 C.2     1  UNL1        0.4052
      2 O         143.2144  140.4213  157.6701 O.2     1  UNL1       -0.2262
      3 N         143.4085  140.4542  160.2608 N.am    1  UNL1       -0.2460
      4 C         143.2089  139.9422  161.6565 C.3     1  UNL1        0.0968
      5 C         143.8355  140.9222  162.6036 C.3     1  UNL1        0.0234
      6 C         144.5343  142.0588  163.2890 C.3     1  UNL1        0.0230
      7 C         144.4223  142.0399  161.7933 C.3     1  UNL1        0.0234
      8 C         144.1584  141.7507  160.3453 C.3     1  UNL1        0.0968
      9 O         142.1982  138.4855  159.0736 O.3     1  UNL1       -0.4295
     10 C         140.6992  138.4789  159.1287 C.3     1  UNL1        0.2367
     11 C         139.1253  138.8193  162.7560 C.ar    1  UNL1        0.0685
     12 C         139.8346  138.2416  161.5672 C.ar    1  UNL1        0.0096
     13 C         139.9898  139.0565  160.3175 C.ar    1  UNL1        0.0222
     14 C         139.4356  140.4490  160.2564 C.ar    1  UNL1        0.0058
     15 C         138.7262  141.0268  161.4451 C.ar    1  UNL1        0.0763
     16 C         138.5711  140.2119  162.6949 C.ar    1  UNL1        0.0167
     17 N         138.8148  137.1897  165.2555 N.1     1  UNL1       -0.1908
     18 C         138.9701  138.0045  164.0057 C.1     1  UNL1        0.1004
     19 C         138.1720  142.4193  161.3841 C.2     1  UNL1        0.3466
     20 O         138.4877  143.3015  160.2128 O.2     1  UNL1       -0.2447
     21 O         137.3022  142.9296  162.4945 O.3     1  UNL1       -0.3701
     22 C         137.9205  143.6113  163.6789 C.3     1  UNL1        0.5774
     23 F         138.5390  144.2931  164.8632 F       1  UNL1       -0.1328
     24 F         137.4102  142.5206  164.5733 F       1  UNL1       -0.1328
     25 F         138.4309  144.7021  162.7844 F       1  UNL1       -0.1328
     26 C         145.0024  142.7261  164.5483 C.3     1  UNL1        0.0897
     27 N         144.0300  143.0035  165.6562 N.am    1  UNL1       -0.3011
     28 C         143.3376  141.8671  166.3483 C.2     1  UNL1        0.2422
     29 O         143.6174  140.4534  165.9326 O.2     1  UNL1       -0.2705
     30 H         143.8463  143.9314  165.9290 H       1  UNL1        0.1497
     31 C         142.3651  142.1446  167.4563 C.2     1  UNL1        0.0373
     32 C         141.0445  142.7872  167.1517 C.2     1  UNL1        0.0022
     33 C         140.0721  143.0647  168.2596 C.2     1  UNL1        0.0221
     34 C         140.4204  142.6995  169.6722 C.2     1  UNL1        0.1201
     35 N         139.6697  142.8500  170.9620 N.2     1  UNL1       -0.1274
     36 N         140.5264  142.3003  172.0638 N.2     1  UNL1       -0.0424
     37 N         141.8066  141.8101  171.4549 N.2     1  UNL1       -0.1312
     38 C         141.7411  142.0569  169.9768 C.2     1  UNL1        0.1060
     39 C         142.7135  141.7794  168.8688 C.3     1  UNL1        0.0802
@<TRIPOS>BOND
     1    17    18    3
     2    18    11    1
     3    11    12   ar
     4    12    13   ar
     5    13    10    1
     6    10     9    1
     7     9     1    1
     8     1     2    2
     9     1     3   am
    10     3     4    1
    11     5     4    1
    12     5     6    1
    13     6    26    1
    14    26    27    1
    15    27    28   am
    16    28    29    2
    17    28    31    1
    18    31    32    2
    19    32    33    1
    20    33    34    2
    21    34    35    1
    22    35    36    2
    23    36    37    1
    24    37    38    2
    25    38    39    1
    26     6     7    1
    27     7     8    1
    28    13    14   ar
    29    14    15   ar
    30    15    19    1
    31    19    20    2
    32    19    21    1
    33    21    22    1
    34    22    23    1
    35    22    24    1
    36    22    25    1
    37    15    16   ar
    38    16    11   ar
    39     8     3    1
    40     7     5    1
    41    39    31    1
    42    38    34    1
    43    27    30    1
@<TRIPOS>MOLECULE
*****
 39 43 0 0 0
SMALL
GASTEIGER

@<TRIPOS>ATOM
      1 C         142.1100  138.1404  160.7887 C.2     1  UNL1        0.4052
      2 O         143.5684  138.2529  160.4564 O.2     1  UNL1       -0.2262
      3 N         141.0844  138.7491  159.8791 N.am    1  UNL1       -0.2460
      4 C         139.5982  138.7175  160.0798 C.3     1  UNL1        0.0968
      5 C         138.9602  139.4451  158.9338 C.3     1  UNL1        0.0234
      6 C         138.6179  140.2130  157.6915 C.3     1  UNL1        0.0230
      7 C         140.0520  139.9265  158.0248 C.3     1  UNL1        0.0234
      8 C         141.3649  139.4963  158.6090 C.3     1  UNL1        0.0968
      9 O         141.6773  137.4191  162.0308 O.3     1  UNL1       -0.4295
     10 C         141.7519  138.1066  163.3619 C.3     1  UNL1        0.2367
     11 C         138.5368  138.9132  165.5442 C.ar    1  UNL1        0.0685
     12 C         139.7383  138.1980  165.0011 C.ar    1  UNL1        0.0096
     13 C         140.5504  138.8218  163.9050 C.ar    1  UNL1        0.0222
     14 C         140.1612  140.1606  163.3520 C.ar    1  UNL1        0.0058
     15 C         138.9597  140.8759  163.8951 C.ar    1  UNL1        0.0763
     16 C         138.1475  140.2522  164.9912 C.ar    1  UNL1        0.0167
     17 N         136.9124  137.6659  167.7363 N.1     1  UNL1       -0.1908
     18 C         137.7247  138.2896  166.6402 C.1     1  UNL1        0.1004
     19 C         138.5703  142.2148  163.3421 C.2     1  UNL1        0.3466
     20 O         137.3900  142.3326  162.4241 O.2     1  UNL1       -0.2447
     21 O         139.3613  143.4358  163.7073 O.3     1  UNL1       -0.3701
     22 C         138.9400  144.2819  164.8720 C.3     1  UNL1        0.5774
     23 F         138.5187  145.1280  166.0367 F       1  UNL1       -0.1328
     24 F         137.7104  144.7017  164.1223 F       1  UNL1       -0.1328
     25 F         140.1696  143.8621  165.6217 F       1  UNL1       -0.1328
     26 C         137.5922  140.8217  156.7818 C.3     1  UNL1        0.0897
     27 N         136.1336  140.5596  157.0142 N.am    1  UNL1       -0.3011
     28 C         135.1715  140.6024  155.8642 C.2     1  UNL1        0.2422
     29 O         135.6677  140.9073  154.4820 O.2     1  UNL1       -0.2705
     30 H         135.8079  140.3595  157.9214 H       1  UNL1        0.1497
     31 C         133.7129  140.3403  156.0967 C.2     1  UNL1        0.0373
     32 C         133.2814  139.1172  156.8501 C.2     1  UNL1        0.0022
     33 C         131.8229  138.8551  157.0825 C.2     1  UNL1        0.0221
     34 C         130.7958  139.8162  156.5614 C.2     1  UNL1        0.1201
     35 N         129.2977  139.8220  156.6358 N.2     1  UNL1       -0.1274
     36 N         128.8033  141.0487  155.9282 N.2     1  UNL1       -0.0424
     37 N         129.9959  141.8011  155.4166 N.2     1  UNL1       -0.1312
     38 C         131.2274  141.0393  155.8080 C.2     1  UNL1        0.1060
     39 C         132.6859  141.3014  155.5756 C.3     1  UNL1        0.0802
@<TRIPOS>BOND
     1    17    18    3
     2    18    11    1
     3    11    12   ar
     4    12    13   ar
     5    13    10    1
     6    10     9    1
     7     9     1    1
     8     1     2    2
     9     1     3   am
    10     3     4    1
    11     5     4    1
    12     5     6    1
    13     6    26    1
    14    26    27    1
    15    27    28   am
    16    28    29    2
    17    28    31    1
    18    31    32    2
    19    32    33    1
    20    33    34    2
    21    34    35    1
    22    35    36    2
    23    36    37    1
    24    37    38    2
    25    38    39    1
    26     6     7    1
    27     7     8    1
    28    13    14   ar
    29    14    15   ar
    30    15    19    1
    31    19    20    2
    32    19    21    1
    33    21    22    1
    34    22    23    1
    35    22    24    1
    36    22    25    1
    37    15    16   ar
    38    16    11   ar
    39     8     3    1
    40     7     5    1
    41    39    31    1
    42    38    34    1
    43    27    30    1
@<TRIPOS>MOLECULE
*****
 39 43 0 0 0
SMALL
GASTEIGER

@<TRIPOS>ATOM
      1 C         142.8632  139.1145  158.5955 C.2     1  UNL1        0.4052
      2 O         142.9728  137.8495  157.7968 O.2     1  UNL1       -0.2262
      3 N         143.2461  139.1213  160.0458 N.am    1  UNL1       -0.2460
      4 C         143.1900  140.3039  160.9669 C.3     1  UNL1        0.0968
      5 C         143.6615  139.8602  162.3199 C.3     1  UNL1        0.0234
      6 C         144.1668  139.1377  163.5335 C.3     1  UNL1        0.0230
      7 C         144.0091  138.4034  162.2351 C.3     1  UNL1        0.0234
      8 C         143.7523  137.9468  160.8296 C.3     1  UNL1        0.0968
      9 O         142.3708  140.3726  157.9438 O.3     1  UNL1       -0.4295
     10 C         140.9055  140.6933  157.9436 C.3     1  UNL1        0.2367
     11 C         139.5661  143.0474  160.8443 C.ar    1  UNL1        0.0685
     12 C         140.2355  142.5970  159.5798 C.ar    1  UNL1        0.0096
     13 C         140.2361  141.1437  159.2081 C.ar    1  UNL1        0.0222
     14 C         139.5674  140.1409  160.1009 C.ar    1  UNL1        0.0058
     15 C         138.8980  140.5913  161.3655 C.ar    1  UNL1        0.0763
     16 C         138.8974  142.0446  161.7372 C.ar    1  UNL1        0.0167
     17 N         139.5647  145.9538  161.5877 N.1     1  UNL1       -0.1908
     18 C         139.5655  144.5006  161.2160 C.1     1  UNL1        0.1004
     19 C         138.2293  139.5886  162.2584 C.2     1  UNL1        0.3466
     20 O         137.4386  138.4624  161.6614 O.2     1  UNL1       -0.2447
     21 O         138.3512  139.7121  163.7483 O.3     1  UNL1       -0.3701
     22 C         138.8579  138.5555  164.5578 C.3     1  UNL1        0.5774
     23 F         139.3646  137.3988  165.3674 F       1  UNL1       -0.1328
     24 F         139.8267  138.2145  163.4645 F       1  UNL1       -0.1328
     25 F         137.8892  138.8964  165.6512 F       1  UNL1       -0.1328
     26 C         144.5497  139.1445  164.9838 C.3     1  UNL1        0.0897
     27 N         143.5004  139.3509  166.0356 N.am    1  UNL1       -0.3011
     28 C         142.9522  140.7240  166.2888 C.2     1  UNL1        0.2422
     29 O         143.4534  141.8906  165.4903 O.2     1  UNL1       -0.2705
     30 H         143.1714  138.5852  166.5597 H       1  UNL1        0.1497
     31 C         141.9028  140.9304  167.3406 C.2     1  UNL1        0.0373
     32 C         140.7421  139.9853  167.4377 C.2     1  UNL1        0.0022
     33 C         139.6927  140.1917  168.4895 C.2     1  UNL1        0.0221
     34 C         139.8042  141.3432  169.4442 C.2     1  UNL1        0.1201
     35 N         138.9304  141.7967  170.5760 N.2     1  UNL1       -0.1274
     36 N         139.5512  143.0222  171.1784 N.2     1  UNL1       -0.0424
     37 N         140.8086  143.3260  170.4190 N.2     1  UNL1       -0.1312
     38 C         140.9649  142.2883  169.3472 C.2     1  UNL1        0.1060
     39 C         142.0143  142.0819  168.2954 C.3     1  UNL1        0.0802
@<TRIPOS>BOND
     1    17    18    3
     2    18    11    1
     3    11    12   ar
     4    12    13   ar
     5    13    10    1
     6    10     9    1
     7     9     1    1
     8     1     2    2
     9     1     3   am
    10     3     4    1
    11     5     4    1
    12     5     6    1
    13     6    26    1
    14    26    27    1
    15    27    28   am
    16    28    29    2
    17    28    31    1
    18    31    32    2
    19    32    33    1
    20    33    34    2
    21    34    35    1
    22    35    36    2
    23    36    37    1
    24    37    38    2
    25    38    39    1
    26     6     7    1
    27     7     8    1
    28    13    14   ar
    29    14    15   ar
    30    15    19    1
    31    19    20    2
    32    19    21    1
    33    21    22    1
    34    22    23    1
    35    22    24    1
    36    22    25    1
    37    15    16   ar
    38    16    11   ar
    39     8     3    1
    40     7     5    1
    41    39    31    1
    42    38    34    1
    43    27    30    1
