@<TRIPOS>MOLECULE
*****
 38 40 0 0 0
SMALL
GASTEIGER

@<TRIPOS>ATOM
      1 N         143.0623  139.5870  165.0029 N.3     1  UNL1       -0.2664
      2 C         144.5065  139.5587  164.5986 C.3     1  UNL1        0.1058
      3 C         144.9519  140.2734  163.3573 C.3     1  UNL1        0.1700
      4 O         144.6843  139.6729  162.0091 O.3     1  UNL1       -0.3793
      5 H         144.2188  138.8288  162.1178 H       1  UNL1        0.2106
      6 C         145.6650  141.5888  163.4643 C.3     1  UNL1        0.2358
      7 O         145.3076  142.7131  162.5380 O.3     1  UNL1       -0.4728
      8 C         141.3632  144.8319  162.9881 C.ar    1  UNL1        0.0646
      9 C         142.5243  145.2160  163.8565 C.ar    1  UNL1        0.0190
     10 C         143.8391  144.5098  163.7065 C.ar    1  UNL1        0.0382
     11 C         143.9928  143.4194  162.6880 C.ar    1  UNL1        0.1388
     12 C         142.8317  143.0352  161.8196 C.ar    1  UNL1        0.0382
     13 C         141.5169  143.7415  161.9696 C.ar    1  UNL1        0.0190
     14 N         140.0484  145.5381  163.1381 N.pl3   1  UNL1       -0.2187
     15 H         139.9849  146.5038  162.9573 H       1  UNL1        0.1734
     16 C         137.6123  144.0080  163.9892 C.3     1  UNL1        0.1996
     17 S         138.8304  144.7731  163.5636 S.O2    1  UNL1        0.0558
     18 O         139.3700  144.6910  164.9607 O.2     1  UNL1       -0.1544
     19 O         138.2908  144.8552  162.1665 O.2     1  UNL1       -0.1544
     20 C         142.5894  138.7508  166.1549 C.3     1  UNL1        0.0772
     21 C         142.9001  139.1678  167.5618 C.3     1  UNL1        0.0437
     22 C         142.2734  140.4052  168.1331 C.ar    1  UNL1       -0.0199
     23 C         140.8869  140.8023  167.7210 C.ar    1  UNL1       -0.0033
     24 C         140.2602  142.0396  168.2922 C.ar    1  UNL1        0.0119
     25 C         141.0200  142.8798  169.2755 C.ar    1  UNL1        0.0682
     26 CL        140.3933  144.1171  169.8467 Cl      1  UNL1       -0.0814
     27 C         142.4065  142.4826  169.6875 C.ar    1  UNL1        0.0679
     28 CL        143.1664  143.3228  170.6708 Cl      1  UNL1       -0.0814
     29 C         143.0332  141.2453  169.1163 C.ar    1  UNL1        0.0080
     30 C         142.0909  140.4516  164.2552 C.3     1  UNL1        0.1022
     31 C         140.8306  139.8569  163.7002 C.ar    1  UNL1        0.0276
     32 C         139.5102  140.5186  163.9625 C.ar    1  UNL1        0.0001
     33 C         138.2499  139.9239  163.4075 C.ar    1  UNL1       -0.0001
     34 C         138.3101  138.6676  162.5901 C.ar    1  UNL1        0.0031
     35 C         139.6305  138.0060  162.3278 C.ar    1  UNL1        0.0363
     36 C         140.8907  138.6007  162.8828 C.ar    1  UNL1        0.1309
     37 O         142.2111  137.9391  162.6205 O.3     1  UNL1       -0.5058
     38 H         142.2487  137.1543  162.1099 H       1  UNL1        0.2922
@<TRIPOS>BOND
     1    16    17    1
     2    17    18    2
     3    17    19    2
     4    17    14    1
     5    14     8    1
     6     8     9   ar
     7     9    10   ar
     8    10    11   ar
     9    11     7    1
    10     7     6    1
    11     6     3    1
    12     3     4    1
    13     3     2    1
    14     2     1    1
    15     1    20    1
    16    20    21    1
    17    21    22    1
    18    22    23   ar
    19    23    24   ar
    20    24    25   ar
    21    25    26    1
    22    25    27   ar
    23    27    28    1
    24    27    29   ar
    25     1    30    1
    26    30    31    1
    27    31    32   ar
    28    32    33   ar
    29    33    34   ar
    30    34    35   ar
    31    35    36   ar
    32    36    37    1
    33    11    12   ar
    34    12    13   ar
    35    13     8   ar
    36    29    22   ar
    37    36    31   ar
    38    14    15    1
    39     4     5    1
    40    37    38    1
@<TRIPOS>MOLECULE
*****
 38 40 0 0 0
SMALL
GASTEIGER

@<TRIPOS>ATOM
      1 N         139.3446  141.2210  160.3531 N.3     1  UNL1       -0.2664
      2 C         138.7746  139.9105  159.8974 C.3     1  UNL1        0.1058
      3 C         138.1321  138.9866  160.8893 C.3     1  UNL1        0.1700
      4 O         136.6392  138.9610  161.0326 O.3     1  UNL1       -0.3793
      5 H         136.2442  139.5968  160.4157 H       1  UNL1        0.2106
      6 C         138.9825  138.0885  161.7379 C.3     1  UNL1        0.2358
      7 O         138.5711  137.7770  163.1463 O.3     1  UNL1       -0.4728
      8 C         140.5265  139.9184  166.5873 C.ar    1  UNL1        0.0646
      9 C         139.0868  140.1831  166.2599 C.ar    1  UNL1        0.0190
     10 C         138.4350  139.4693  165.1129 C.ar    1  UNL1        0.0382
     11 C         139.2229  138.4908  164.2933 C.ar    1  UNL1        0.1388
     12 C         140.6626  138.2261  164.6207 C.ar    1  UNL1        0.0382
     13 C         141.3144  138.9400  165.7677 C.ar    1  UNL1        0.0190
     14 N         141.1783  140.6322  167.7343 N.pl3   1  UNL1       -0.2187
     15 H         141.2323  141.6152  167.7356 H       1  UNL1        0.1734
     16 C         142.3173  139.0644  170.0244 C.3     1  UNL1        0.1996
     17 S         141.7478  139.8483  168.8794 S.O2    1  UNL1        0.0558
     18 O         143.1283  140.0433  168.3262 O.2     1  UNL1       -0.1544
     19 O         140.3672  139.6534  169.4326 O.2     1  UNL1       -0.1544
     20 C         140.8237  141.3653  160.5570 C.3     1  UNL1        0.0772
     21 C         141.5165  140.5614  161.6171 C.3     1  UNL1        0.0437
     22 C         142.2809  141.2556  162.7052 C.ar    1  UNL1       -0.0199
     23 C         141.5499  142.0551  163.7426 C.ar    1  UNL1       -0.0033
     24 C         142.3143  142.7492  164.8306 C.ar    1  UNL1        0.0119
     25 C         143.8097  142.6438  164.8812 C.ar    1  UNL1        0.0682
     26 CL        144.5741  143.3380  165.9693 Cl      1  UNL1       -0.0814
     27 C         144.5407  141.8443  163.8438 C.ar    1  UNL1        0.0679
     28 CL        146.0362  141.7389  163.8944 Cl      1  UNL1       -0.0814
     29 C         143.7764  141.1502  162.7558 C.ar    1  UNL1        0.0080
     30 C         138.4355  142.3873  160.6049 C.3     1  UNL1        0.1022
     31 C         138.4512  143.0766  161.9370 C.ar    1  UNL1        0.0276
     32 C         139.3097  144.2892  162.1440 C.ar    1  UNL1        0.0001
     33 C         139.3254  144.9785  163.4761 C.ar    1  UNL1       -0.0001
     34 C         138.4827  144.4552  164.6014 C.ar    1  UNL1        0.0031
     35 C         137.6243  143.2426  164.3944 C.ar    1  UNL1        0.0363
     36 C         137.6086  142.5533  163.0622 C.ar    1  UNL1        0.1309
     37 O         136.7502  141.3408  162.8552 O.3     1  UNL1       -0.5058
     38 H         136.2238  141.0139  163.5581 H       1  UNL1        0.2922
@<TRIPOS>BOND
     1    16    17    1
     2    17    18    2
     3    17    19    2
     4    17    14    1
     5    14     8    1
     6     8     9   ar
     7     9    10   ar
     8    10    11   ar
     9    11     7    1
    10     7     6    1
    11     6     3    1
    12     3     4    1
    13     3     2    1
    14     2     1    1
    15     1    20    1
    16    20    21    1
    17    21    22    1
    18    22    23   ar
    19    23    24   ar
    20    24    25   ar
    21    25    26    1
    22    25    27   ar
    23    27    28    1
    24    27    29   ar
    25     1    30    1
    26    30    31    1
    27    31    32   ar
    28    32    33   ar
    29    33    34   ar
    30    34    35   ar
    31    35    36   ar
    32    36    37    1
    33    11    12   ar
    34    12    13   ar
    35    13     8   ar
    36    29    22   ar
    37    36    31   ar
    38    14    15    1
    39     4     5    1
    40    37    38    1
@<TRIPOS>MOLECULE
*****
 38 40 0 0 0
SMALL
GASTEIGER

@<TRIPOS>ATOM
      1 N         139.6784  139.0733  162.1482 N.3     1  UNL1       -0.2664
      2 C         140.7435  138.0227  162.2567 C.3     1  UNL1        0.1058
      3 C         141.5622  137.9112  163.5087 C.3     1  UNL1        0.1700
      4 O         141.1674  136.9370  164.5787 O.3     1  UNL1       -0.3793
      5 H         140.3670  136.4626  164.3047 H       1  UNL1        0.2106
      6 C         142.7757  138.7740  163.6905 C.3     1  UNL1        0.2358
      7 O         143.5396  138.7316  164.9807 O.3     1  UNL1       -0.4728
      8 C         142.7606  141.8201  168.1594 C.ar    1  UNL1        0.0646
      9 C         143.2706  142.2415  166.8132 C.ar    1  UNL1        0.0190
     10 C         143.5303  141.2120  165.7536 C.ar    1  UNL1        0.0382
     11 C         143.2799  139.7611  166.0402 C.ar    1  UNL1        0.1388
     12 C         142.7699  139.3397  167.3864 C.ar    1  UNL1        0.0382
     13 C         142.5102  140.3692  168.4460 C.ar    1  UNL1        0.0190
     14 N         142.5009  142.8496  169.2189 N.pl3   1  UNL1       -0.2187
     15 H         143.1923  143.5152  169.4386 H       1  UNL1        0.1734
     16 C         139.8746  142.8807  170.6686 C.3     1  UNL1        0.1996
     17 S         141.1878  142.8652  169.9438 S.O2    1  UNL1        0.0558
     18 O         140.4892  143.2389  168.6702 O.2     1  UNL1       -0.1544
     19 O         141.8864  142.4914  171.2174 O.2     1  UNL1       -0.1544
     20 C         139.4910  139.8212  160.8616 C.3     1  UNL1        0.0772
     21 C         140.5586  140.7559  160.3750 C.3     1  UNL1        0.0437
     22 C         140.9443  141.9482  161.1995 C.ar    1  UNL1       -0.0199
     23 C         142.2411  141.9509  161.9534 C.ar    1  UNL1       -0.0033
     24 C         142.6267  143.1432  162.7778 C.ar    1  UNL1        0.0119
     25 C         141.7156  144.3327  162.8484 C.ar    1  UNL1        0.0682
     26 CL        142.1013  145.5249  163.6729 Cl      1  UNL1       -0.0814
     27 C         140.4188  144.3299  162.0946 C.ar    1  UNL1        0.0679
     28 CL        139.5077  145.5194  162.1652 Cl      1  UNL1       -0.0814
     29 C         140.0332  143.1377  161.2702 C.ar    1  UNL1        0.0080
     30 C         138.8006  139.3760  163.3264 C.3     1  UNL1        0.1022
     31 C         138.8380  140.7351  163.9599 C.ar    1  UNL1        0.0276
     32 C         140.0094  141.1359  164.8068 C.ar    1  UNL1        0.0001
     33 C         140.0467  142.4950  165.4404 C.ar    1  UNL1       -0.0001
     34 C         138.9127  143.4534  165.2269 C.ar    1  UNL1        0.0031
     35 C         137.7413  143.0526  164.3800 C.ar    1  UNL1        0.0363
     36 C         137.7040  141.6934  163.7465 C.ar    1  UNL1        0.1309
     37 O         136.5326  141.2927  162.8996 O.3     1  UNL1       -0.5058
     38 H         135.8243  141.8913  162.7663 H       1  UNL1        0.2922
@<TRIPOS>BOND
     1    16    17    1
     2    17    18    2
     3    17    19    2
     4    17    14    1
     5    14     8    1
     6     8     9   ar
     7     9    10   ar
     8    10    11   ar
     9    11     7    1
    10     7     6    1
    11     6     3    1
    12     3     4    1
    13     3     2    1
    14     2     1    1
    15     1    20    1
    16    20    21    1
    17    21    22    1
    18    22    23   ar
    19    23    24   ar
    20    24    25   ar
    21    25    26    1
    22    25    27   ar
    23    27    28    1
    24    27    29   ar
    25     1    30    1
    26    30    31    1
    27    31    32   ar
    28    32    33   ar
    29    33    34   ar
    30    34    35   ar
    31    35    36   ar
    32    36    37    1
    33    11    12   ar
    34    12    13   ar
    35    13     8   ar
    36    29    22   ar
    37    36    31   ar
    38    14    15    1
    39     4     5    1
    40    37    38    1
@<TRIPOS>MOLECULE
*****
 38 40 0 0 0
SMALL
GASTEIGER

@<TRIPOS>ATOM
      1 N         139.2292  138.1291  164.1937 N.3     1  UNL1       -0.2664
      2 C         138.5479  137.6540  162.9447 C.3     1  UNL1        0.1058
      3 C         138.7014  138.4249  161.6671 C.3     1  UNL1        0.1700
      4 O         139.7995  138.0749  160.7071 O.3     1  UNL1       -0.3793
      5 H         140.3148  137.3334  161.0617 H       1  UNL1        0.2106
      6 C         137.7567  139.5459  161.3495 C.3     1  UNL1        0.2358
      7 O         137.7461  140.7815  162.1999 O.3     1  UNL1       -0.4728
      8 C         141.1532  143.7109  161.9548 C.ar    1  UNL1        0.0646
      9 C         139.8499  144.0181  161.2789 C.ar    1  UNL1        0.0190
     10 C         138.7142  143.0417  161.3606 C.ar    1  UNL1        0.0382
     11 C         138.8818  141.7580  162.1182 C.ar    1  UNL1        0.1388
     12 C         140.1851  141.4507  162.7941 C.ar    1  UNL1        0.0382
     13 C         141.3209  142.4272  162.7124 C.ar    1  UNL1        0.0190
     14 N         142.2889  144.6874  161.8731 N.pl3   1  UNL1       -0.2187
     15 H         142.4663  145.1668  161.0317 H       1  UNL1        0.1734
     16 C         144.0199  145.1792  164.2735 C.3     1  UNL1        0.1996
     17 S         143.1544  144.9333  163.0733 S.O2    1  UNL1        0.0558
     18 O         141.9869  145.5441  163.7900 O.2     1  UNL1       -0.1544
     19 O         144.3219  144.3224  162.3565 O.2     1  UNL1       -0.1544
     20 C         138.5784  139.1726  165.0524 C.3     1  UNL1        0.0772
     21 C         138.6727  139.0799  166.5466 C.3     1  UNL1        0.0437
     22 C         139.3726  140.1564  167.3222 C.ar    1  UNL1       -0.0199
     23 C         139.7956  141.4211  166.6355 C.ar    1  UNL1       -0.0033
     24 C         140.4955  142.4975  167.4111 C.ar    1  UNL1        0.0119
     25 C         140.7723  142.3092  168.8732 C.ar    1  UNL1        0.0682
     26 CL        141.4722  143.3857  169.6488 Cl      1  UNL1       -0.0814
     27 C         140.3493  141.0445  169.5598 C.ar    1  UNL1        0.0679
     28 CL        140.6261  140.8562  171.0220 Cl      1  UNL1       -0.0814
     29 C         139.6494  139.9681  168.7843 C.ar    1  UNL1        0.0080
     30 C         140.5613  137.5605  164.5841 C.3     1  UNL1        0.1022
     31 C         141.8189  138.3190  164.2789 C.ar    1  UNL1        0.0276
     32 C         142.3578  139.3075  165.2701 C.ar    1  UNL1        0.0001
     33 C         143.6155  140.0660  164.9649 C.ar    1  UNL1       -0.0001
     34 C         144.3342  139.8358  163.6685 C.ar    1  UNL1        0.0031
     35 C         143.7953  138.8473  162.6774 C.ar    1  UNL1        0.0363
     36 C         142.5377  138.0889  162.9826 C.ar    1  UNL1        0.1309
     37 O         141.9988  137.1003  161.9915 O.3     1  UNL1       -0.5058
     38 H         142.4477  136.9566  161.1817 H       1  UNL1        0.2922
@<TRIPOS>BOND
     1    16    17    1
     2    17    18    2
     3    17    19    2
     4    17    14    1
     5    14     8    1
     6     8     9   ar
     7     9    10   ar
     8    10    11   ar
     9    11     7    1
    10     7     6    1
    11     6     3    1
    12     3     4    1
    13     3     2    1
    14     2     1    1
    15     1    20    1
    16    20    21    1
    17    21    22    1
    18    22    23   ar
    19    23    24   ar
    20    24    25   ar
    21    25    26    1
    22    25    27   ar
    23    27    28    1
    24    27    29   ar
    25     1    30    1
    26    30    31    1
    27    31    32   ar
    28    32    33   ar
    29    33    34   ar
    30    34    35   ar
    31    35    36   ar
    32    36    37    1
    33    11    12   ar
    34    12    13   ar
    35    13     8   ar
    36    29    22   ar
    37    36    31   ar
    38    14    15    1
    39     4     5    1
    40    37    38    1
@<TRIPOS>MOLECULE
*****
 38 40 0 0 0
SMALL
GASTEIGER

@<TRIPOS>ATOM
      1 N         141.9958  142.6178  161.1879 N.3     1  UNL1       -0.2664
      2 C         143.4803  142.8197  161.2619 C.3     1  UNL1        0.1058
      3 C         144.0736  143.6185  162.3844 C.3     1  UNL1        0.1700
      4 O         143.8469  145.0997  162.4525 O.3     1  UNL1       -0.3793
      5 H         143.3006  145.3780  161.7008 H       1  UNL1        0.2106
      6 C         144.8935  142.9360  163.4389 C.3     1  UNL1        0.2358
      7 O         144.7116  141.4699  163.6983 O.3     1  UNL1       -0.4728
      8 C         142.3642  140.0932  167.2823 C.ar    1  UNL1        0.0646
      9 C         143.0129  139.0868  166.3789 C.ar    1  UNL1        0.0190
     10 C         143.7954  139.5457  165.1842 C.ar    1  UNL1        0.0382
     11 C         143.9291  141.0110  164.8930 C.ar    1  UNL1        0.1388
     12 C         143.2804  142.0174  165.7964 C.ar    1  UNL1        0.0382
     13 C         142.4979  141.5586  166.9910 C.ar    1  UNL1        0.0190
     14 N         141.5817  139.6344  168.4769 N.pl3   1  UNL1       -0.2187
     15 H         140.9497  138.8842  168.3929 H       1  UNL1        0.1734
     16 C         141.9428  141.0024  171.1223 C.3     1  UNL1        0.1996
     17 S         141.7623  140.3183  169.7996 S.O2    1  UNL1        0.0558
     18 O         140.3821  140.8954  169.6896 O.2     1  UNL1       -0.1544
     19 O         143.1424  139.7413  169.9096 O.2     1  UNL1       -0.1544
     20 C         141.4358  141.2437  160.9687 C.3     1  UNL1        0.0772
     21 C         141.8980  140.1004  161.8227 C.3     1  UNL1        0.0437
     22 C         140.9901  139.5351  162.8746 C.ar    1  UNL1       -0.0199
     23 C         140.6247  138.0806  162.8471 C.ar    1  UNL1       -0.0033
     24 C         139.7169  137.5154  163.8990 C.ar    1  UNL1        0.0119
     25 C         139.1745  138.4048  164.9783 C.ar    1  UNL1        0.0682
     26 CL        138.2667  137.8395  166.0302 Cl      1  UNL1       -0.0814
     27 C         139.5399  139.8593  165.0058 C.ar    1  UNL1        0.0679
     28 CL        138.9975  140.7486  166.0851 Cl      1  UNL1       -0.0814
     29 C         140.4477  140.4245  163.9539 C.ar    1  UNL1        0.0080
     30 C         141.0713  143.7901  161.3332 C.3     1  UNL1        0.1022
     31 C         140.0992  143.8418  162.4744 C.ar    1  UNL1        0.0276
     32 C         140.5809  144.1754  163.8553 C.ar    1  UNL1        0.0001
     33 C         139.6088  144.2271  164.9966 C.ar    1  UNL1       -0.0001
     34 C         138.1551  143.9451  164.7570 C.ar    1  UNL1        0.0031
     35 C         137.6736  143.6114  163.3761 C.ar    1  UNL1        0.0363
     36 C         138.6456  143.5598  162.2349 C.ar    1  UNL1        0.1309
     37 O         138.1640  143.2262  160.8540 O.3     1  UNL1       -0.5058
     38 H         137.2560  143.0500  160.7044 H       1  UNL1        0.2922
@<TRIPOS>BOND
     1    16    17    1
     2    17    18    2
     3    17    19    2
     4    17    14    1
     5    14     8    1
     6     8     9   ar
     7     9    10   ar
     8    10    11   ar
     9    11     7    1
    10     7     6    1
    11     6     3    1
    12     3     4    1
    13     3     2    1
    14     2     1    1
    15     1    20    1
    16    20    21    1
    17    21    22    1
    18    22    23   ar
    19    23    24   ar
    20    24    25   ar
    21    25    26    1
    22    25    27   ar
    23    27    28    1
    24    27    29   ar
    25     1    30    1
    26    30    31    1
    27    31    32   ar
    28    32    33   ar
    29    33    34   ar
    30    34    35   ar
    31    35    36   ar
    32    36    37    1
    33    11    12   ar
    34    12    13   ar
    35    13     8   ar
    36    29    22   ar
    37    36    31   ar
    38    14    15    1
    39     4     5    1
    40    37    38    1
@<TRIPOS>MOLECULE
*****
 38 40 0 0 0
SMALL
GASTEIGER

@<TRIPOS>ATOM
      1 N         142.7617  143.8861  164.2019 N.3     1  UNL1       -0.2664
      2 C         144.0399  144.1623  163.4671 C.3     1  UNL1        0.1058
      3 C         144.4549  143.2807  162.3266 C.3     1  UNL1        0.1700
      4 O         143.8654  143.4906  160.9634 O.3     1  UNL1       -0.3793
      5 H         143.2387  144.2304  160.9926 H       1  UNL1        0.2106
      6 C         145.4593  142.1892  162.5495 C.3     1  UNL1        0.2358
      7 O         145.1280  140.7762  162.1704 O.3     1  UNL1       -0.4728
      8 C         141.8179  138.5930  164.2981 C.ar    1  UNL1        0.0646
      9 C         143.1945  138.6314  164.8927 C.ar    1  UNL1        0.0190
     10 C         144.2978  139.3591  164.1835 C.ar    1  UNL1        0.0382
     11 C         144.0246  140.0485  162.8797 C.ar    1  UNL1        0.1388
     12 C         142.6481  140.0102  162.2851 C.ar    1  UNL1        0.0382
     13 C         141.5447  139.2824  162.9943 C.ar    1  UNL1        0.0190
     14 N         140.7145  137.8653  165.0074 N.pl3   1  UNL1       -0.2187
     15 H         140.8406  136.9289  165.2838 H       1  UNL1        0.1734
     16 C         138.1235  139.2634  165.5835 C.3     1  UNL1        0.1996
     17 S         139.4191  138.5644  165.2955 S.O2    1  UNL1        0.0558
     18 O         138.7304  137.7092  164.2736 O.2     1  UNL1       -0.1544
     19 O         140.1078  139.4195  166.3174 O.2     1  UNL1       -0.1544
     20 C         142.5956  142.6037  164.9621 C.3     1  UNL1        0.0772
     21 C         143.1830  142.4644  166.3353 C.3     1  UNL1        0.0437
     22 C         142.3720  141.8537  167.4396 C.ar    1  UNL1       -0.0199
     23 C         141.0718  142.4794  167.8494 C.ar    1  UNL1       -0.0033
     24 C         140.2608  141.8687  168.9536 C.ar    1  UNL1        0.0119
     25 C         140.7500  140.6324  169.6480 C.ar    1  UNL1        0.0682
     26 CL        139.9390  140.0218  170.7523 Cl      1  UNL1       -0.0814
     27 C         142.0502  140.0068  169.2382 C.ar    1  UNL1        0.0679
     28 CL        142.5394  138.7705  169.9326 Cl      1  UNL1       -0.0814
     29 C         142.8612  140.6174  168.1340 C.ar    1  UNL1        0.0080
     30 C         141.6495  144.8923  164.1765 C.3     1  UNL1        0.1022
     31 C         140.2404  144.4465  163.9199 C.ar    1  UNL1        0.0276
     32 C         139.1776  144.6890  164.9503 C.ar    1  UNL1        0.0001
     33 C         137.7686  144.2431  164.6936 C.ar    1  UNL1       -0.0001
     34 C         137.4224  143.5548  163.4066 C.ar    1  UNL1        0.0031
     35 C         138.4852  143.3124  162.3762 C.ar    1  UNL1        0.0363
     36 C         139.8942  143.7582  162.6329 C.ar    1  UNL1        0.1309
     37 O         140.9570  143.5158  161.6026 O.3     1  UNL1       -0.5058
     38 H         140.7408  143.0858  160.7986 H       1  UNL1        0.2922
@<TRIPOS>BOND
     1    16    17    1
     2    17    18    2
     3    17    19    2
     4    17    14    1
     5    14     8    1
     6     8     9   ar
     7     9    10   ar
     8    10    11   ar
     9    11     7    1
    10     7     6    1
    11     6     3    1
    12     3     4    1
    13     3     2    1
    14     2     1    1
    15     1    20    1
    16    20    21    1
    17    21    22    1
    18    22    23   ar
    19    23    24   ar
    20    24    25   ar
    21    25    26    1
    22    25    27   ar
    23    27    28    1
    24    27    29   ar
    25     1    30    1
    26    30    31    1
    27    31    32   ar
    28    32    33   ar
    29    33    34   ar
    30    34    35   ar
    31    35    36   ar
    32    36    37    1
    33    11    12   ar
    34    12    13   ar
    35    13     8   ar
    36    29    22   ar
    37    36    31   ar
    38    14    15    1
    39     4     5    1
    40    37    38    1
@<TRIPOS>MOLECULE
*****
 38 40 0 0 0
SMALL
GASTEIGER

@<TRIPOS>ATOM
      1 N         139.0300  139.6350  160.4069 N.3     1  UNL1       -0.2664
      2 C         139.3215  138.2042  160.7504 C.3     1  UNL1        0.1058
      3 C         139.7180  137.8345  162.1491 C.3     1  UNL1        0.1700
      4 O         138.7093  137.2285  163.0792 O.3     1  UNL1       -0.3793
      5 H         137.8576  137.1448  162.6225 H       1  UNL1        0.2106
      6 C         141.1232  138.0708  162.6175 C.3     1  UNL1        0.2358
      7 O         141.5910  137.4795  163.9142 O.3     1  UNL1       -0.4728
      8 C         141.5118  139.9522  167.6731 C.ar    1  UNL1        0.0646
      9 C         142.7820  139.2793  167.2447 C.ar    1  UNL1        0.0190
     10 C         142.8084  138.4551  165.9917 C.ar    1  UNL1        0.0382
     11 C         141.5646  138.3037  165.1672 C.ar    1  UNL1        0.1388
     12 C         140.2944  138.9766  165.5956 C.ar    1  UNL1        0.0382
     13 C         140.2679  139.8009  166.8486 C.ar    1  UNL1        0.0190
     14 N         141.4854  140.7764  168.9261 N.pl3   1  UNL1       -0.2187
     15 H         140.6662  140.8183  169.4706 H       1  UNL1        0.1734
     16 C         143.9287  142.2973  169.7729 C.3     1  UNL1        0.1996
     17 S         142.7070  141.5369  169.3495 S.O2    1  UNL1        0.0558
     18 O         142.9602  140.5283  170.4305 O.2     1  UNL1       -0.1544
     19 O         142.4538  142.5455  168.2685 O.2     1  UNL1       -0.1544
     20 C         139.9795  140.4063  159.5388 C.3     1  UNL1        0.0772
     21 C         141.3373  140.7770  160.0573 C.3     1  UNL1        0.0437
     22 C         141.4884  141.9260  161.0097 C.ar    1  UNL1       -0.0199
     23 C         141.5954  143.3268  160.4840 C.ar    1  UNL1       -0.0033
     24 C         141.7465  144.4757  161.4363 C.ar    1  UNL1        0.0119
     25 C         141.7907  144.2240  162.9144 C.ar    1  UNL1        0.0682
     26 CL        141.9418  145.3730  163.8667 Cl      1  UNL1       -0.0814
     27 C         141.6837  142.8232  163.4401 C.ar    1  UNL1        0.0679
     28 CL        141.7279  142.5714  164.9182 Cl      1  UNL1       -0.0814
     29 C         141.5326  141.6743  162.4878 C.ar    1  UNL1        0.0080
     30 C         137.7891  140.2945  160.9315 C.3     1  UNL1        0.1022
     31 C         137.8872  141.3115  162.0298 C.ar    1  UNL1        0.0276
     32 C         137.8305  140.8747  163.4637 C.ar    1  UNL1        0.0001
     33 C         137.9286  141.8917  164.5619 C.ar    1  UNL1       -0.0001
     34 C         138.0836  143.3454  164.2262 C.ar    1  UNL1        0.0031
     35 C         138.1404  143.7821  162.7923 C.ar    1  UNL1        0.0363
     36 C         138.0422  142.7651  161.6941 C.ar    1  UNL1        0.1309
     37 O         138.0990  143.2018  160.2602 O.3     1  UNL1       -0.5058
     38 H         138.1958  144.1099  160.0505 H       1  UNL1        0.2922
@<TRIPOS>BOND
     1    16    17    1
     2    17    18    2
     3    17    19    2
     4    17    14    1
     5    14     8    1
     6     8     9   ar
     7     9    10   ar
     8    10    11   ar
     9    11     7    1
    10     7     6    1
    11     6     3    1
    12     3     4    1
    13     3     2    1
    14     2     1    1
    15     1    20    1
    16    20    21    1
    17    21    22    1
    18    22    23   ar
    19    23    24   ar
    20    24    25   ar
    21    25    26    1
    22    25    27   ar
    23    27    28    1
    24    27    29   ar
    25     1    30    1
    26    30    31    1
    27    31    32   ar
    28    32    33   ar
    29    33    34   ar
    30    34    35   ar
    31    35    36   ar
    32    36    37    1
    33    11    12   ar
    34    12    13   ar
    35    13     8   ar
    36    29    22   ar
    37    36    31   ar
    38    14    15    1
    39     4     5    1
    40    37    38    1
@<TRIPOS>MOLECULE
*****
 38 40 0 0 0
SMALL
GASTEIGER

@<TRIPOS>ATOM
      1 N         140.0303  142.4795  160.2234 N.3     1  UNL1       -0.2664
      2 C         140.2757  141.0144  160.0155 C.3     1  UNL1        0.1058
      3 C         139.5379  140.0053  160.8447 C.3     1  UNL1        0.1700
      4 O         138.1785  139.5350  160.4196 O.3     1  UNL1       -0.3793
      5 H         137.9263  139.9785  159.5947 H       1  UNL1        0.2106
      6 C         140.1597  139.4665  162.0990 C.3     1  UNL1        0.2358
      7 O         139.3868  139.4790  163.3844 O.3     1  UNL1       -0.4728
      8 C         141.0035  141.6808  166.9606 C.ar    1  UNL1        0.0646
      9 C         139.9433  140.6349  167.1400 C.ar    1  UNL1        0.0190
     10 C         139.4044  139.9010  165.9479 C.ar    1  UNL1        0.0382
     11 C         139.9257  140.2129  164.5765 C.ar    1  UNL1        0.1388
     12 C         140.9858  141.2588  164.3971 C.ar    1  UNL1        0.0382
     13 C         141.5247  141.9927  165.5891 C.ar    1  UNL1        0.0190
     14 N         141.5424  142.4147  168.1526 N.pl3   1  UNL1       -0.2187
     15 H         142.4626  142.7644  168.1407 H       1  UNL1        0.1734
     16 C         139.8161  142.8167  170.5731 C.3     1  UNL1        0.1996
     17 S         140.6793  142.6157  169.3628 S.O2    1  UNL1        0.0558
     18 O         141.3526  141.4565  170.0356 O.2     1  UNL1       -0.1544
     19 O         140.0059  143.7749  168.6900 O.2     1  UNL1       -0.1544
     20 C         141.1041  143.4739  159.8946 C.3     1  UNL1        0.0772
     21 C         142.5425  143.1385  160.1563 C.3     1  UNL1        0.0437
     22 C         143.1192  143.3280  161.5280 C.ar    1  UNL1       -0.0199
     23 C         142.6736  144.4821  162.3762 C.ar    1  UNL1       -0.0033
     24 C         143.2503  144.6715  163.7478 C.ar    1  UNL1        0.0119
     25 C         144.2727  143.7068  164.2713 C.ar    1  UNL1        0.0682
     26 CL        144.8494  143.8963  165.6431 Cl      1  UNL1       -0.0814
     27 C         144.7184  142.5527  163.4232 C.ar    1  UNL1        0.0679
     28 CL        145.7408  141.5880  163.9467 Cl      1  UNL1       -0.0814
     29 C         144.1417  142.3633  162.0516 C.ar    1  UNL1        0.0080
     30 C         138.7110  142.9502  160.7601 C.3     1  UNL1        0.1022
     31 C         138.5807  143.3259  162.2064 C.ar    1  UNL1        0.0276
     32 C         139.3363  144.5040  162.7463 C.ar    1  UNL1        0.0001
     33 C         139.2060  144.8797  164.1926 C.ar    1  UNL1       -0.0001
     34 C         138.3202  144.0774  165.0991 C.ar    1  UNL1        0.0031
     35 C         137.5646  142.8994  164.5592 C.ar    1  UNL1        0.0363
     36 C         137.6949  142.5237  163.1129 C.ar    1  UNL1        0.1309
     37 O         136.9394  141.3457  162.5730 O.3     1  UNL1       -0.5058
     38 H         136.3861  140.8446  163.1392 H       1  UNL1        0.2922
@<TRIPOS>BOND
     1    16    17    1
     2    17    18    2
     3    17    19    2
     4    17    14    1
     5    14     8    1
     6     8     9   ar
     7     9    10   ar
     8    10    11   ar
     9    11     7    1
    10     7     6    1
    11     6     3    1
    12     3     4    1
    13     3     2    1
    14     2     1    1
    15     1    20    1
    16    20    21    1
    17    21    22    1
    18    22    23   ar
    19    23    24   ar
    20    24    25   ar
    21    25    26    1
    22    25    27   ar
    23    27    28    1
    24    27    29   ar
    25     1    30    1
    26    30    31    1
    27    31    32   ar
    28    32    33   ar
    29    33    34   ar
    30    34    35   ar
    31    35    36   ar
    32    36    37    1
    33    11    12   ar
    34    12    13   ar
    35    13     8   ar
    36    29    22   ar
    37    36    31   ar
    38    14    15    1
    39     4     5    1
    40    37    38    1
@<TRIPOS>MOLECULE
*****
 38 40 0 0 0
SMALL
GASTEIGER

@<TRIPOS>ATOM
      1 N         140.6309  138.2056  161.9143 N.3     1  UNL1       -0.2664
      2 C         141.7822  138.8545  161.2046 C.3     1  UNL1        0.1058
      3 C         143.1891  138.4509  161.5329 C.3     1  UNL1        0.1700
      4 O         143.6984  137.1021  161.1189 O.3     1  UNL1       -0.3793
      5 H         142.9970  136.6207  160.6529 H       1  UNL1        0.2106
      6 C         144.0867  139.3962  162.2750 C.3     1  UNL1        0.2358
      7 O         144.5113  139.0810  163.6787 O.3     1  UNL1       -0.4728
      8 C         142.6793  141.3033  167.1363 C.ar    1  UNL1        0.0646
      9 C         143.3403  142.0611  166.0234 C.ar    1  UNL1        0.0190
     10 C         143.9510  141.3204  164.8708 C.ar    1  UNL1        0.0382
     11 C         143.9007  139.8218  164.8312 C.ar    1  UNL1        0.1388
     12 C         143.2397  139.0639  165.9442 C.ar    1  UNL1        0.0382
     13 C         142.6290  139.8047  167.0967 C.ar    1  UNL1        0.0190
     14 N         142.0687  142.0440  168.2889 N.pl3   1  UNL1       -0.2187
     15 H         141.6897  142.9422  168.1515 H       1  UNL1        0.1734
     16 C         142.0022  140.7886  171.0128 C.3     1  UNL1        0.1996
     17 S         142.0354  141.4163  169.6508 S.O2    1  UNL1        0.0558
     18 O         143.5111  141.6449  169.7922 O.2     1  UNL1       -0.1544
     19 O         140.5597  141.1877  169.5094 O.2     1  UNL1       -0.1544
     20 C         139.3157  138.0380  161.2127 C.3     1  UNL1        0.0772
     21 C         138.6952  139.1997  160.4948 C.3     1  UNL1        0.0437
     22 C         138.4668  140.4935  161.2187 C.ar    1  UNL1       -0.0199
     23 C         137.4710  140.5606  162.3385 C.ar    1  UNL1       -0.0033
     24 C         137.2426  141.8544  163.0623 C.ar    1  UNL1        0.0119
     25 C         138.0099  143.0809  162.6665 C.ar    1  UNL1        0.0682
     26 CL        137.7815  144.3747  163.3904 Cl      1  UNL1       -0.0814
     27 C         139.0057  143.0138  161.5467 C.ar    1  UNL1        0.0679
     28 CL        139.7731  144.2403  161.1508 Cl      1  UNL1       -0.0814
     29 C         139.2341  141.7200  160.8228 C.ar    1  UNL1        0.0080
     30 C         140.7948  137.7244  163.3255 C.3     1  UNL1        0.1022
     31 C         139.8956  138.2484  164.4058 C.ar    1  UNL1        0.0276
     32 C         139.0340  137.3025  165.1888 C.ar    1  UNL1        0.0001
     33 C         138.1348  137.8265  166.2690 C.ar    1  UNL1       -0.0001
     34 C         138.0972  139.2963  166.5663 C.ar    1  UNL1        0.0031
     35 C         138.9588  140.2421  165.7833 C.ar    1  UNL1        0.0363
     36 C         139.8580  139.7181  164.7030 C.ar    1  UNL1        0.1309
     37 O         140.7196  140.6639  163.9200 O.3     1  UNL1       -0.5058
     38 H         140.6961  141.5820  164.1057 H       1  UNL1        0.2922
@<TRIPOS>BOND
     1    16    17    1
     2    17    18    2
     3    17    19    2
     4    17    14    1
     5    14     8    1
     6     8     9   ar
     7     9    10   ar
     8    10    11   ar
     9    11     7    1
    10     7     6    1
    11     6     3    1
    12     3     4    1
    13     3     2    1
    14     2     1    1
    15     1    20    1
    16    20    21    1
    17    21    22    1
    18    22    23   ar
    19    23    24   ar
    20    24    25   ar
    21    25    26    1
    22    25    27   ar
    23    27    28    1
    24    27    29   ar
    25     1    30    1
    26    30    31    1
    27    31    32   ar
    28    32    33   ar
    29    33    34   ar
    30    34    35   ar
    31    35    36   ar
    32    36    37    1
    33    11    12   ar
    34    12    13   ar
    35    13     8   ar
    36    29    22   ar
    37    36    31   ar
    38    14    15    1
    39     4     5    1
    40    37    38    1
