@<TRIPOS>MOLECULE
*****
 34 36 0 0 0
SMALL
GASTEIGER

@<TRIPOS>ATOM
      1 C         139.0132  139.0433  166.1993 C.ar    1  UNL1        0.0729
      2 C         137.7418  138.3822  166.6426 C.ar    1  UNL1        0.1048
      3 N         137.2778  138.5246  168.0618 N.ar    1  UNL1       -0.2292
      4 C         138.0851  139.3281  169.0378 C.ar    1  UNL1        0.1285
      5 C         139.3564  139.9892  168.5946 C.ar    1  UNL1        0.0346
      6 C         139.8205  139.8468  167.1753 C.ar    1  UNL1        0.0090
      7 C         140.1638  140.7927  169.5706 C.ar    1  UNL1        0.0410
      8 C         141.1898  140.1168  170.4311 C.ar    1  UNL1        0.1023
      9 N         141.9971  140.9203  171.4071 N.ar    1  UNL1       -0.2224
     10 C         141.7784  142.3997  171.5226 C.ar    1  UNL1        0.1989
     11 N         140.7524  143.0757  170.6622 N.ar    1  UNL1       -0.2224
     12 C         139.9451  142.2722  169.6862 C.ar    1  UNL1        0.1023
     13 O         138.5413  138.3711  163.7345 O.2     1  UNL1       -0.2698
     14 C         139.4773  138.9009  164.7800 C.2     1  UNL1        0.2510
     15 N         140.8773  139.2884  164.4063 N.am    1  UNL1       -0.2803
     16 H         141.4916  139.6362  165.0925 H       1  UNL1        0.1552
     17 C         141.3414  139.1460  162.9870 C.ar    1  UNL1        0.0507
     18 C         142.2208  137.9950  162.5973 C.ar    1  UNL1        0.0178
     19 C         142.6849  137.8527  161.1781 C.ar    1  UNL1        0.0385
     20 C         142.2696  138.8614  160.1484 C.ar    1  UNL1        0.1469
     21 C         141.3902  140.0123  160.5381 C.ar    1  UNL1        0.0385
     22 C         140.9261  140.1547  161.9573 C.ar    1  UNL1        0.0178
     23 O         142.7337  138.7190  158.7291 O.3     1  UNL1       -0.4045
     24 C         143.1306  139.9341  157.9444 C.3     1  UNL1        0.5753
     25 F         143.5275  141.1493  157.1596 F       1  UNL1       -0.1328
     26 F         144.3200  140.1230  158.8384 F       1  UNL1       -0.1328
     27 F         141.9411  139.7452  157.0503 F       1  UNL1       -0.1328
     28 N         137.6210  139.4705  170.4572 N.pl3   1  UNL1       -0.3180
     29 H         138.1581  139.9860  171.1013 H       1  UNL1        0.1482
     30 C         136.3385  138.8274  170.8950 C.3     1  UNL1        0.0907
     31 C         136.2559  138.1535  172.2325 C.3     1  UNL1        0.0529
     32 C         136.6488  136.7126  172.3720 C.3     1  UNL1        0.1389
     33 O         135.6494  135.7067  172.8611 O.3     1  UNL1       -0.3819
     34 H         135.4187  135.9019  173.7828 H       1  UNL1        0.2104
@<TRIPOS>BOND
     1    13    14    2
     2    14    15   am
     3    15    17    1
     4    17    18   ar
     5    18    19   ar
     6    19    20   ar
     7    20    23    1
     8    23    24    1
     9    24    25    1
    10    24    26    1
    11    24    27    1
    12    20    21   ar
    13    21    22   ar
    14    14     1    1
    15     1     2   ar
    16     2     3   ar
    17     3     4   ar
    18     4    28    1
    19    28    30    1
    20    30    31    1
    21    31    32    1
    22    32    33    1
    23     4     5   ar
    24     5     7    1
    25     7     8   ar
    26     8     9   ar
    27     9    10   ar
    28    10    11   ar
    29    11    12   ar
    30     5     6   ar
    31    22    17   ar
    32     6     1   ar
    33    12     7   ar
    34    15    16    1
    35    28    29    1
    36    33    34    1
@<TRIPOS>MOLECULE
*****
 34 36 0 0 0
SMALL
GASTEIGER

@<TRIPOS>ATOM
      1 C         138.9427  140.0217  161.6133 C.ar    1  UNL1        0.0729
      2 C         138.1361  141.2100  161.1805 C.ar    1  UNL1        0.1048
      3 N         137.5829  142.1546  162.2060 N.ar    1  UNL1       -0.2292
      4 C         137.8362  141.9109  163.6642 C.ar    1  UNL1        0.1285
      5 C         138.6428  140.7227  164.0970 C.ar    1  UNL1        0.0346
      6 C         139.1961  139.7781  163.0716 C.ar    1  UNL1        0.0090
      7 C         138.8961  140.4790  165.5552 C.ar    1  UNL1        0.0410
      8 C         138.1817  139.3674  166.2651 C.ar    1  UNL1        0.1023
      9 N         138.4350  139.1238  167.7233 N.ar    1  UNL1       -0.2224
     10 C         139.4028  139.9917  168.4717 C.ar    1  UNL1        0.1989
     11 N         140.1173  141.1032  167.7618 N.ar    1  UNL1       -0.2224
     12 C         139.8639  141.3469  166.3036 C.ar    1  UNL1        0.1023
     13 O         139.4345  137.5966  160.8214 O.2     1  UNL1       -0.2698
     14 C         139.4960  139.0770  160.5879 C.2     1  UNL1        0.2510
     15 N         140.1108  139.6128  159.3289 N.am    1  UNL1       -0.2803
     16 H         140.1512  140.5844  159.1756 H       1  UNL1        0.1552
     17 C         140.6641  138.6681  158.3035 C.ar    1  UNL1        0.0507
     18 C         142.1179  138.2998  158.3301 C.ar    1  UNL1        0.0178
     19 C         142.6712  137.3552  157.3047 C.ar    1  UNL1        0.0385
     20 C         141.7706  136.7788  156.2526 C.ar    1  UNL1        0.1469
     21 C         140.3168  137.1471  156.2260 C.ar    1  UNL1        0.0385
     22 C         139.7636  138.0918  157.2514 C.ar    1  UNL1        0.0178
     23 O         142.3239  135.8341  155.2272 O.3     1  UNL1       -0.4045
     24 C         142.8115  134.4779  155.6426 C.3     1  UNL1        0.5753
     25 F         143.2992  133.1215  156.0581 F       1  UNL1       -0.1328
     26 F         144.2288  134.9618  155.5592 F       1  UNL1       -0.1328
     27 F         141.3942  133.9939  155.7261 F       1  UNL1       -0.1328
     28 N         137.2829  142.8556  164.6897 N.pl3   1  UNL1       -0.3180
     29 H         136.6355  142.5331  165.3575 H       1  UNL1        0.1482
     30 C         137.7160  144.2917  164.6975 C.3     1  UNL1        0.0907
     31 C         139.1683  144.6378  164.5525 C.3     1  UNL1        0.0529
     32 C         139.7297  144.9664  163.2008 C.3     1  UNL1        0.1389
     33 O         138.8148  145.0902  162.0186 O.3     1  UNL1       -0.3819
     34 H         138.4189  144.2262  161.8243 H       1  UNL1        0.2104
@<TRIPOS>BOND
     1    13    14    2
     2    14    15   am
     3    15    17    1
     4    17    18   ar
     5    18    19   ar
     6    19    20   ar
     7    20    23    1
     8    23    24    1
     9    24    25    1
    10    24    26    1
    11    24    27    1
    12    20    21   ar
    13    21    22   ar
    14    14     1    1
    15     1     2   ar
    16     2     3   ar
    17     3     4   ar
    18     4    28    1
    19    28    30    1
    20    30    31    1
    21    31    32    1
    22    32    33    1
    23     4     5   ar
    24     5     7    1
    25     7     8   ar
    26     8     9   ar
    27     9    10   ar
    28    10    11   ar
    29    11    12   ar
    30     5     6   ar
    31    22    17   ar
    32     6     1   ar
    33    12     7   ar
    34    15    16    1
    35    28    29    1
    36    33    34    1
@<TRIPOS>MOLECULE
*****
 34 36 0 0 0
SMALL
GASTEIGER

@<TRIPOS>ATOM
      1 C         143.0083  142.3491  161.5798 C.ar    1  UNL1        0.0729
      2 C         144.3912  141.9992  161.1162 C.ar    1  UNL1        0.1048
      3 N         144.8160  142.3211  159.7141 N.ar    1  UNL1       -0.2292
      4 C         143.8579  142.9929  158.7757 C.ar    1  UNL1        0.1285
      5 C         142.4750  143.3429  159.2393 C.ar    1  UNL1        0.0346
      6 C         142.0501  143.0209  160.6414 C.ar    1  UNL1        0.0090
      7 C         141.5168  144.0147  158.3009 C.ar    1  UNL1        0.0410
      8 C         140.6131  143.1892  157.4339 C.ar    1  UNL1        0.1023
      9 N         139.6550  143.8610  156.4954 N.ar    1  UNL1       -0.2224
     10 C         139.6006  145.3583  156.4240 C.ar    1  UNL1        0.1989
     11 N         140.5043  146.1838  157.2911 N.ar    1  UNL1       -0.2224
     12 C         141.4625  145.5120  158.2295 C.ar    1  UNL1        0.1023
     13 O         142.0387  140.6680  163.3072 O.2     1  UNL1       -0.2698
     14 C         142.5834  142.0272  162.9820 C.2     1  UNL1        0.2510
     15 N         142.7033  143.0645  164.0588 N.am    1  UNL1       -0.2803
     16 H         143.0608  143.9566  163.8454 H       1  UNL1        0.1552
     17 C         142.2784  142.7426  165.4610 C.ar    1  UNL1        0.0507
     18 C         143.2994  142.3221  166.4762 C.ar    1  UNL1        0.0178
     19 C         142.8745  142.0002  167.8782 C.ar    1  UNL1        0.0385
     20 C         141.4286  142.0989  168.2651 C.ar    1  UNL1        0.1469
     21 C         140.4076  142.5193  167.2499 C.ar    1  UNL1        0.0385
     22 C         140.8325  142.8412  165.8478 C.ar    1  UNL1        0.0178
     23 O         141.0037  141.7769  169.6672 O.3     1  UNL1       -0.4045
     24 C         139.6380  141.2133  169.9264 C.3     1  UNL1        0.5753
     25 F         138.2723  140.6496  170.1855 F       1  UNL1       -0.1328
     26 F         139.2019  142.5311  170.4945 F       1  UNL1       -0.1328
     27 F         140.0742  139.8954  169.3582 F       1  UNL1       -0.1328
     28 N         144.2828  143.3148  157.3736 N.pl3   1  UNL1       -0.3180
     29 H         144.3557  144.2531  157.0844 H       1  UNL1        0.1482
     30 C         144.5965  142.2072  156.4120 C.3     1  UNL1        0.0907
     31 C         146.0057  141.7131  156.2710 C.3     1  UNL1        0.0529
     32 C         147.1550  142.6235  156.5881 C.3     1  UNL1        0.1389
     33 O         147.2032  143.3397  157.9051 O.3     1  UNL1       -0.3819
     34 H         146.4733  143.9768  157.9536 H       1  UNL1        0.2104
@<TRIPOS>BOND
     1    13    14    2
     2    14    15   am
     3    15    17    1
     4    17    18   ar
     5    18    19   ar
     6    19    20   ar
     7    20    23    1
     8    23    24    1
     9    24    25    1
    10    24    26    1
    11    24    27    1
    12    20    21   ar
    13    21    22   ar
    14    14     1    1
    15     1     2   ar
    16     2     3   ar
    17     3     4   ar
    18     4    28    1
    19    28    30    1
    20    30    31    1
    21    31    32    1
    22    32    33    1
    23     4     5   ar
    24     5     7    1
    25     7     8   ar
    26     8     9   ar
    27     9    10   ar
    28    10    11   ar
    29    11    12   ar
    30     5     6   ar
    31    22    17   ar
    32     6     1   ar
    33    12     7   ar
    34    15    16    1
    35    28    29    1
    36    33    34    1
@<TRIPOS>MOLECULE
*****
 34 36 0 0 0
SMALL
GASTEIGER

@<TRIPOS>ATOM
      1 C         141.6946  138.2691  161.4405 C.ar    1  UNL1        0.0729
      2 C         143.1296  137.9561  161.1360 C.ar    1  UNL1        0.1048
      3 N         143.6049  137.9252  159.7137 N.ar    1  UNL1       -0.2292
      4 C         142.6453  138.2074  158.5959 C.ar    1  UNL1        0.1285
      5 C         141.2103  138.5205  158.9004 C.ar    1  UNL1        0.0346
      6 C         140.7350  138.5513  160.3227 C.ar    1  UNL1        0.0090
      7 C         140.2507  138.8027  157.7826 C.ar    1  UNL1        0.0410
      8 C         139.8713  140.2173  157.4590 C.ar    1  UNL1        0.1023
      9 N         138.9117  140.4995  156.3412 N.ar    1  UNL1       -0.2224
     10 C         138.3315  139.3671  155.5470 C.ar    1  UNL1        0.1989
     11 N         138.7109  137.9524  155.8706 N.ar    1  UNL1       -0.2224
     12 C         139.6705  137.6702  156.9884 C.ar    1  UNL1        0.1023
     13 O         141.0473  137.0190  163.6242 O.2     1  UNL1       -0.2698
     14 C         141.2191  138.3000  162.8629 C.2     1  UNL1        0.2510
     15 N         140.9155  139.6118  163.5239 N.am    1  UNL1       -0.2803
     16 H         141.0283  140.4525  163.0242 H       1  UNL1        0.1552
     17 C         140.4401  139.6427  164.9463 C.ar    1  UNL1        0.0507
     18 C         139.0253  139.2660  165.2725 C.ar    1  UNL1        0.0178
     19 C         138.5499  139.2969  166.6948 C.ar    1  UNL1        0.0385
     20 C         139.4893  139.7044  167.7909 C.ar    1  UNL1        0.1469
     21 C         140.9041  140.0811  167.4647 C.ar    1  UNL1        0.0385
     22 C         141.3795  140.0502  166.0424 C.ar    1  UNL1        0.0178
     23 O         139.0139  139.7353  169.2133 O.3     1  UNL1       -0.4045
     24 C         139.8111  140.4628  170.2549 C.3     1  UNL1        0.5753
     25 F         140.6084  141.1905  171.2966 F       1  UNL1       -0.1328
     26 F         138.9871  141.6949  170.0251 F       1  UNL1       -0.1328
     27 F         140.6352  139.2308  170.4848 F       1  UNL1       -0.1328
     28 N         143.1207  138.1766  157.1735 N.pl3   1  UNL1       -0.3180
     29 H         143.2511  139.0182  156.6797 H       1  UNL1        0.1482
     30 C         143.3976  136.8634  156.5036 C.3     1  UNL1        0.0907
     31 C         142.7308  135.6140  156.9980 C.3     1  UNL1        0.0529
     32 C         143.4810  134.3150  157.0024 C.3     1  UNL1        0.1389
     33 O         143.0320  133.1927  157.8905 O.3     1  UNL1       -0.3819
     34 H         143.1464  133.4494  158.8189 H       1  UNL1        0.2104
@<TRIPOS>BOND
     1    13    14    2
     2    14    15   am
     3    15    17    1
     4    17    18   ar
     5    18    19   ar
     6    19    20   ar
     7    20    23    1
     8    23    24    1
     9    24    25    1
    10    24    26    1
    11    24    27    1
    12    20    21   ar
    13    21    22   ar
    14    14     1    1
    15     1     2   ar
    16     2     3   ar
    17     3     4   ar
    18     4    28    1
    19    28    30    1
    20    30    31    1
    21    31    32    1
    22    32    33    1
    23     4     5   ar
    24     5     7    1
    25     7     8   ar
    26     8     9   ar
    27     9    10   ar
    28    10    11   ar
    29    11    12   ar
    30     5     6   ar
    31    22    17   ar
    32     6     1   ar
    33    12     7   ar
    34    15    16    1
    35    28    29    1
    36    33    34    1
@<TRIPOS>MOLECULE
*****
 34 36 0 0 0
SMALL
GASTEIGER

@<TRIPOS>ATOM
      1 C         142.5893  139.1668  165.5610 C.ar    1  UNL1        0.0729
      2 C         143.5251  138.1416  166.1295 C.ar    1  UNL1        0.1048
      3 N         143.7107  138.0372  167.6143 N.ar    1  UNL1       -0.2292
      4 C         142.9604  138.9579  168.5305 C.ar    1  UNL1        0.1285
      5 C         142.0247  139.9831  167.9620 C.ar    1  UNL1        0.0346
      6 C         141.8391  140.0875  166.4772 C.ar    1  UNL1        0.0090
      7 C         141.2744  140.9038  168.8782 C.ar    1  UNL1        0.0410
      8 C         139.9389  140.4939  169.4244 C.ar    1  UNL1        0.1023
      9 N         139.1887  141.4146  170.3406 N.ar    1  UNL1       -0.2224
     10 C         139.7740  142.7452  170.7107 C.ar    1  UNL1        0.1989
     11 N         141.1095  143.1550  170.1645 N.ar    1  UNL1       -0.2224
     12 C         141.8597  142.2343  169.2483 C.ar    1  UNL1        0.1023
     13 O         142.7321  140.5519  163.3675 O.2     1  UNL1       -0.2698
     14 C         142.4037  139.2713  164.0761 C.2     1  UNL1        0.2510
     15 N         141.8896  138.0952  163.3000 N.am    1  UNL1       -0.2803
     16 H         141.6740  137.2547  163.7651 H       1  UNL1        0.1552
     17 C         141.7040  138.1997  161.8151 C.ar    1  UNL1        0.0507
     18 C         140.4095  138.7105  161.2552 C.ar    1  UNL1        0.0178
     19 C         140.2240  138.8149  159.7704 C.ar    1  UNL1        0.0385
     20 C         141.3328  138.4086  158.8456 C.ar    1  UNL1        0.1469
     21 C         142.6272  137.8979  159.4055 C.ar    1  UNL1        0.0385
     22 C         142.8128  137.7934  160.8903 C.ar    1  UNL1        0.0178
     23 O         141.1472  138.5131  157.3607 O.3     1  UNL1       -0.4045
     24 C         140.9604  137.2722  156.5391 C.3     1  UNL1        0.5753
     25 F         140.7736  136.0312  155.7174 F       1  UNL1       -0.1328
     26 F         142.3983  137.3354  156.1167 F       1  UNL1       -0.1328
     27 F         139.5225  137.2090  156.9614 F       1  UNL1       -0.1328
     28 N         143.1461  138.8534  170.0154 N.pl3   1  UNL1       -0.3180
     29 H         143.2572  139.6686  170.5562 H       1  UNL1        0.1482
     30 C         143.1624  137.5070  170.6763 C.3     1  UNL1        0.0907
     31 C         144.4636  136.9009  171.1115 C.3     1  UNL1        0.0529
     32 C         144.5213  135.4566  171.5125 C.3     1  UNL1        0.1389
     33 O         144.3378  135.0694  172.9500 O.3     1  UNL1       -0.3819
     34 H         145.0779  135.4132  173.4744 H       1  UNL1        0.2104
@<TRIPOS>BOND
     1    13    14    2
     2    14    15   am
     3    15    17    1
     4    17    18   ar
     5    18    19   ar
     6    19    20   ar
     7    20    23    1
     8    23    24    1
     9    24    25    1
    10    24    26    1
    11    24    27    1
    12    20    21   ar
    13    21    22   ar
    14    14     1    1
    15     1     2   ar
    16     2     3   ar
    17     3     4   ar
    18     4    28    1
    19    28    30    1
    20    30    31    1
    21    31    32    1
    22    32    33    1
    23     4     5   ar
    24     5     7    1
    25     7     8   ar
    26     8     9   ar
    27     9    10   ar
    28    10    11   ar
    29    11    12   ar
    30     5     6   ar
    31    22    17   ar
    32     6     1   ar
    33    12     7   ar
    34    15    16    1
    35    28    29    1
    36    33    34    1
@<TRIPOS>MOLECULE
*****
 34 36 0 0 0
SMALL
GASTEIGER

@<TRIPOS>ATOM
      1 C         139.8163  140.7004  159.6617 C.ar    1  UNL1        0.0729
      2 C         138.4594  141.3313  159.5584 C.ar    1  UNL1        0.1048
      3 N         138.1473  142.5715  160.3423 N.ar    1  UNL1       -0.2292
      4 C         139.1921  143.1808  161.2295 C.ar    1  UNL1        0.1285
      5 C         140.5490  142.5498  161.3328 C.ar    1  UNL1        0.0346
      6 C         140.8611  141.3096  160.5489 C.ar    1  UNL1        0.0090
      7 C         141.5939  143.1591  162.2200 C.ar    1  UNL1        0.0410
      8 C         142.5996  144.1137  161.6481 C.ar    1  UNL1        0.1023
      9 N         143.6444  144.7229  162.5353 N.ar    1  UNL1       -0.2224
     10 C         143.6835  144.3776  163.9945 C.ar    1  UNL1        0.1989
     11 N         142.6778  143.4229  164.5664 N.ar    1  UNL1       -0.2224
     12 C         141.6330  142.8137  163.6792 C.ar    1  UNL1        0.1023
     13 O         139.2328  138.2614  158.9827 O.2     1  UNL1       -0.2698
     14 C         140.1284  139.4601  158.8778 C.2     1  UNL1        0.2510
     15 N         141.3360  139.4187  157.9891 N.am    1  UNL1       -0.2803
     16 H         141.9238  140.2054  157.9203 H       1  UNL1        0.1552
     17 C         141.6481  138.1784  157.2052 C.ar    1  UNL1        0.0507
     18 C         142.6578  137.1977  157.7236 C.ar    1  UNL1        0.0178
     19 C         142.9699  135.9576  156.9397 C.ar    1  UNL1        0.0385
     20 C         142.2723  135.6981  155.6374 C.ar    1  UNL1        0.1469
     21 C         141.2627  136.6788  155.1190 C.ar    1  UNL1        0.0385
     22 C         140.9506  137.9189  155.9029 C.ar    1  UNL1        0.0178
     23 O         142.5844  134.4578  154.8535 O.3     1  UNL1       -0.4045
     24 C         142.4629  133.1105  155.5015 C.3     1  UNL1        0.5753
     25 F         142.3414  131.7632  156.1496 F       1  UNL1       -0.1328
     26 F         140.9776  133.2933  155.6029 F       1  UNL1       -0.1328
     27 F         143.9483  132.9278  155.4002 F       1  UNL1       -0.1328
     28 N         138.8800  144.4210  162.0134 N.pl3   1  UNL1       -0.3180
     29 H         139.3670  145.2562  161.8278 H       1  UNL1        0.1482
     30 C         137.8260  144.3886  163.0801 C.3     1  UNL1        0.0907
     31 C         137.9863  143.4838  164.2656 C.3     1  UNL1        0.0529
     32 C         137.6892  142.0191  164.1369 C.3     1  UNL1        0.1389
     33 O         136.7236  141.5385  163.0945 O.3     1  UNL1       -0.3819
     34 H         135.8346  141.8669  163.3014 H       1  UNL1        0.2104
@<TRIPOS>BOND
     1    13    14    2
     2    14    15   am
     3    15    17    1
     4    17    18   ar
     5    18    19   ar
     6    19    20   ar
     7    20    23    1
     8    23    24    1
     9    24    25    1
    10    24    26    1
    11    24    27    1
    12    20    21   ar
    13    21    22   ar
    14    14     1    1
    15     1     2   ar
    16     2     3   ar
    17     3     4   ar
    18     4    28    1
    19    28    30    1
    20    30    31    1
    21    31    32    1
    22    32    33    1
    23     4     5   ar
    24     5     7    1
    25     7     8   ar
    26     8     9   ar
    27     9    10   ar
    28    10    11   ar
    29    11    12   ar
    30     5     6   ar
    31    22    17   ar
    32     6     1   ar
    33    12     7   ar
    34    15    16    1
    35    28    29    1
    36    33    34    1
@<TRIPOS>MOLECULE
*****
 34 36 0 0 0
SMALL
GASTEIGER

@<TRIPOS>ATOM
      1 C         139.1403  139.2717  161.1758 C.ar    1  UNL1        0.0729
      2 C         137.9211  139.9355  160.6077 C.ar    1  UNL1        0.1048
      3 N         137.7706  140.0827  159.1226 N.ar    1  UNL1       -0.2292
      4 C         138.8394  139.5662  158.2056 C.ar    1  UNL1        0.1285
      5 C         140.0586  138.9024  158.7737 C.ar    1  UNL1        0.0346
      6 C         140.2091  138.7552  160.2588 C.ar    1  UNL1        0.0090
      7 C         141.1274  138.3859  157.8567 C.ar    1  UNL1        0.0410
      8 C         142.4792  139.0357  157.8393 C.ar    1  UNL1        0.1023
      9 N         143.5480  138.5191  156.9223 N.ar    1  UNL1       -0.2224
     10 C         143.2650  137.3528  156.0227 C.ar    1  UNL1        0.1989
     11 N         141.9132  136.7029  156.0400 N.ar    1  UNL1       -0.2224
     12 C         140.8444  137.2195  156.9570 C.ar    1  UNL1        0.1023
     13 O         139.8553  137.8592  163.2358 O.2     1  UNL1       -0.2698
     14 C         139.2909  139.1245  162.6610 C.2     1  UNL1        0.2510
     15 N         138.8770  140.2425  163.5713 N.am    1  UNL1       -0.2803
     16 H         138.5065  141.0730  163.1940 H       1  UNL1        0.1552
     17 C         139.0275  140.0953  165.0565 C.ar    1  UNL1        0.0507
     18 C         140.1645  140.7692  165.7656 C.ar    1  UNL1        0.0178
     19 C         140.3150  140.6220  167.2507 C.ar    1  UNL1        0.0385
     20 C         139.3284  139.8007  168.0267 C.ar    1  UNL1        0.1469
     21 C         138.1914  139.1267  167.3177 C.ar    1  UNL1        0.0385
     22 C         138.0409  139.2740  165.8325 C.ar    1  UNL1        0.0178
     23 O         139.4790  139.6535  169.5119 O.3     1  UNL1       -0.4045
     24 C         140.0791  140.7663  170.3189 C.3     1  UNL1        0.5753
     25 F         140.6794  141.8792  171.1260 F       1  UNL1       -0.1328
     26 F         141.3527  139.9848  170.4495 F       1  UNL1       -0.1328
     27 F         138.8055  141.5479  170.1883 F       1  UNL1       -0.1328
     28 N         138.6889  139.7134  156.7204 N.pl3   1  UNL1       -0.3180
     29 H         138.7902  138.9283  156.1351 H       1  UNL1        0.1482
     30 C         138.3840  141.0568  156.1270 C.3     1  UNL1        0.0907
     31 C         137.1967  141.2268  155.2262 C.3     1  UNL1        0.0529
     32 C         135.8718  140.6389  155.6125 C.3     1  UNL1        0.1389
     33 O         135.5918  140.2984  157.0462 O.3     1  UNL1       -0.3819
     34 H         136.1773  139.5781  157.3277 H       1  UNL1        0.2104
@<TRIPOS>BOND
     1    13    14    2
     2    14    15   am
     3    15    17    1
     4    17    18   ar
     5    18    19   ar
     6    19    20   ar
     7    20    23    1
     8    23    24    1
     9    24    25    1
    10    24    26    1
    11    24    27    1
    12    20    21   ar
    13    21    22   ar
    14    14     1    1
    15     1     2   ar
    16     2     3   ar
    17     3     4   ar
    18     4    28    1
    19    28    30    1
    20    30    31    1
    21    31    32    1
    22    32    33    1
    23     4     5   ar
    24     5     7    1
    25     7     8   ar
    26     8     9   ar
    27     9    10   ar
    28    10    11   ar
    29    11    12   ar
    30     5     6   ar
    31    22    17   ar
    32     6     1   ar
    33    12     7   ar
    34    15    16    1
    35    28    29    1
    36    33    34    1
@<TRIPOS>MOLECULE
*****
 34 36 0 0 0
SMALL
GASTEIGER

@<TRIPOS>ATOM
      1 C         142.1765  143.2991  160.9128 C.ar    1  UNL1        0.0729
      2 C         141.5921  144.6099  160.4767 C.ar    1  UNL1        0.1048
      3 N         141.8117  145.1000  159.0761 N.ar    1  UNL1       -0.2292
      4 C         142.6158  144.2793  158.1118 C.ar    1  UNL1        0.1285
      5 C         143.2002  142.9685  158.5479 C.ar    1  UNL1        0.0346
      6 C         142.9806  142.4784  159.9484 C.ar    1  UNL1        0.0090
      7 C         144.0042  142.1479  157.5835 C.ar    1  UNL1        0.0410
      8 C         143.3357  141.0827  156.7660 C.ar    1  UNL1        0.1023
      9 N         144.1397  140.2621  155.8016 N.ar    1  UNL1       -0.2224
     10 C         145.6123  140.5065  155.6548 C.ar    1  UNL1        0.1989
     11 N         146.2809  141.5717  156.4724 N.ar    1  UNL1       -0.2224
     12 C         145.4769  142.3923  157.4367 C.ar    1  UNL1        0.1023
     13 O         141.6109  141.3702  162.5589 O.2     1  UNL1       -0.2698
     14 C         141.9569  142.8089  162.3134 C.2     1  UNL1        0.2510
     15 N         142.0834  143.7575  163.4685 N.am    1  UNL1       -0.2803
     16 H         142.3105  144.7018  163.3073 H       1  UNL1        0.1552
     17 C         141.8638  143.2673  164.8691 C.ar    1  UNL1        0.0507
     18 C         142.9998  142.6607  165.6381 C.ar    1  UNL1        0.0178
     19 C         142.7801  142.1706  167.0386 C.ar    1  UNL1        0.0385
     20 C         141.4245  142.2871  167.6701 C.ar    1  UNL1        0.1469
     21 C         140.2885  142.8937  166.9010 C.ar    1  UNL1        0.0385
     22 C         140.5082  143.3838  165.5005 C.ar    1  UNL1        0.0178
     23 O         141.2049  141.7969  169.0707 O.3     1  UNL1       -0.4045
     24 C         140.2498  142.5167  169.9761 C.3     1  UNL1        0.5753
     25 F         139.2947  143.2364  170.8815 F       1  UNL1       -0.1328
     26 F         139.2793  141.3793  169.8564 F       1  UNL1       -0.1328
     27 F         141.2204  143.6540  170.0957 F       1  UNL1       -0.1328
     28 N         142.8354  144.7695  156.7112 N.pl3   1  UNL1       -0.3180
     29 H         143.5980  145.3586  156.5097 H       1  UNL1        0.1482
     30 C         141.8931  144.3620  155.6176 C.3     1  UNL1        0.0907
     31 C         140.4113  144.4432  155.8355 C.3     1  UNL1        0.0529
     32 C         139.7696  145.7638  156.1428 C.3     1  UNL1        0.1389
     33 O         140.5650  146.8471  156.8090 O.3     1  UNL1       -0.3819
     34 H         140.8016  146.5686  157.7075 H       1  UNL1        0.2104
@<TRIPOS>BOND
     1    13    14    2
     2    14    15   am
     3    15    17    1
     4    17    18   ar
     5    18    19   ar
     6    19    20   ar
     7    20    23    1
     8    23    24    1
     9    24    25    1
    10    24    26    1
    11    24    27    1
    12    20    21   ar
    13    21    22   ar
    14    14     1    1
    15     1     2   ar
    16     2     3   ar
    17     3     4   ar
    18     4    28    1
    19    28    30    1
    20    30    31    1
    21    31    32    1
    22    32    33    1
    23     4     5   ar
    24     5     7    1
    25     7     8   ar
    26     8     9   ar
    27     9    10   ar
    28    10    11   ar
    29    11    12   ar
    30     5     6   ar
    31    22    17   ar
    32     6     1   ar
    33    12     7   ar
    34    15    16    1
    35    28    29    1
    36    33    34    1
@<TRIPOS>MOLECULE
*****
 34 36 0 0 0
SMALL
GASTEIGER

@<TRIPOS>ATOM
      1 C         138.7640  142.3275  160.9449 C.ar    1  UNL1        0.0729
      2 C         139.4118  143.6454  160.6394 C.ar    1  UNL1        0.1048
      3 N         139.6023  144.0751  159.2149 N.ar    1  UNL1       -0.2292
      4 C         139.1451  143.1869  158.0961 C.ar    1  UNL1        0.1285
      5 C         138.4973  141.8689  158.4016 C.ar    1  UNL1        0.0346
      6 C         138.3067  141.4393  159.8260 C.ar    1  UNL1        0.0090
      7 C         138.0400  140.9807  157.2827 C.ar    1  UNL1        0.0410
      8 C         136.6564  141.1310  156.7234 C.ar    1  UNL1        0.1023
      9 N         136.1991  140.2427  155.6045 N.ar    1  UNL1       -0.2224
     10 C         137.1255  139.2042  155.0449 C.ar    1  UNL1        0.1989
     11 N         138.5092  139.0539  155.6042 N.ar    1  UNL1       -0.2224
     12 C         138.9664  139.9422  156.7231 C.ar    1  UNL1        0.1023
     13 O         137.2533  142.1142  163.0478 O.2     1  UNL1       -0.2698
     14 C         138.5734  141.8978  162.3694 C.2     1  UNL1        0.2510
     15 N         139.7030  141.2517  163.1154 N.am    1  UNL1       -0.2803
     16 H         140.5695  141.1096  162.6701 H       1  UNL1        0.1552
     17 C         139.5125  140.8219  164.5399 C.ar    1  UNL1        0.0507
     18 C         138.6837  139.6118  164.8537 C.ar    1  UNL1        0.0178
     19 C         138.4932  139.1821  166.2781 C.ar    1  UNL1        0.0385
     20 C         139.1314  139.9626  167.3887 C.ar    1  UNL1        0.1469
     21 C         139.9602  141.1728  167.0749 C.ar    1  UNL1        0.0385
     22 C         140.1508  141.6024  165.6505 C.ar    1  UNL1        0.0178
     23 O         138.9409  139.5328  168.8132 O.3     1  UNL1       -0.4045
     24 C         139.6711  140.2424  169.9147 C.3     1  UNL1        0.5753
     25 F         140.4013  140.9519  171.0163 F       1  UNL1       -0.1328
     26 F         140.8705  139.3729  169.6797 F       1  UNL1       -0.1328
     27 F         138.4716  141.1119  170.1497 F       1  UNL1       -0.1328
     28 N         139.3356  143.6166  156.6716 N.pl3   1  UNL1       -0.3180
     29 H         138.5568  143.8718  156.1260 H       1  UNL1        0.1482
     30 C         140.7127  143.6576  156.0784 C.3     1  UNL1        0.0907
     31 C         141.3738  144.9765  155.8079 C.3     1  UNL1        0.0529
     32 C         140.6285  146.2542  156.0571 C.3     1  UNL1        0.1389
     33 O         140.1353  146.5780  157.4362 O.3     1  UNL1       -0.3819
     34 H         139.4525  145.9389  157.6937 H       1  UNL1        0.2104
@<TRIPOS>BOND
     1    13    14    2
     2    14    15   am
     3    15    17    1
     4    17    18   ar
     5    18    19   ar
     6    19    20   ar
     7    20    23    1
     8    23    24    1
     9    24    25    1
    10    24    26    1
    11    24    27    1
    12    20    21   ar
    13    21    22   ar
    14    14     1    1
    15     1     2   ar
    16     2     3   ar
    17     3     4   ar
    18     4    28    1
    19    28    30    1
    20    30    31    1
    21    31    32    1
    22    32    33    1
    23     4     5   ar
    24     5     7    1
    25     7     8   ar
    26     8     9   ar
    27     9    10   ar
    28    10    11   ar
    29    11    12   ar
    30     5     6   ar
    31    22    17   ar
    32     6     1   ar
    33    12     7   ar
    34    15    16    1
    35    28    29    1
    36    33    34    1
