@<TRIPOS>MOLECULE
*****
 29 33 0 0 0
SMALL
GASTEIGER

@<TRIPOS>ATOM
      1 C         140.8043  137.6727  162.8797 C.ar    1  UNL1       -0.0059
      2 C         142.1931  137.7525  162.3189 C.ar    1  UNL1        0.0002
      3 C         142.4020  138.1437  160.8859 C.ar    1  UNL1        0.0373
      4 C         141.2220  138.4552  160.0138 C.ar    1  UNL1        0.1477
      5 C         139.8330  138.3754  160.5748 C.ar    1  UNL1        0.0373
      6 C         139.6242  137.9842  162.0077 C.ar    1  UNL1        0.0002
      7 C         140.5954  137.2814  164.3127 C.3     1  UNL1        0.0992
      8 C         140.3127  140.4528  167.4927 C.3     1  UNL1        0.0781
      9 C         139.0644  139.8287  166.9429 C.3     1  UNL1        0.0372
     10 C         139.1587  138.7715  165.8828 C.3     1  UNL1        0.0741
     11 N         140.5012  138.3386  165.3727 N.3     1  UNL1       -0.2689
     12 C         141.7494  138.9627  165.9226 C.3     1  UNL1        0.0741
     13 C         141.6552  140.0198  166.9825 C.3     1  UNL1        0.0372
     14 O         139.1432  140.0432  170.5117 O.2     1  UNL1       -0.2749
     15 C         139.6809  141.3216  169.9404 C.2     1  UNL1        0.2256
     16 C         139.7755  142.6363  170.6564 C.3     1  UNL1        0.0870
     17 C         140.3715  143.6371  169.7113 C.3     1  UNL1        0.0311
     18 C         140.6452  142.9409  168.4111 C.3     1  UNL1        0.0938
     19 N         140.2184  141.5099  168.5527 N.am    1  UNL1       -0.2811
     20 O         141.4308  138.8464  158.5809 O.3     1  UNL1       -0.4313
     21 C         141.6058  137.7881  157.5324 C.ar    1  UNL1        0.2642
     22 N         142.7419  136.8127  157.4451 N.ar    1  UNL1       -0.1859
     23 C         142.5137  135.9412  156.2458 C.ar    1  UNL1        0.1720
     24 N         143.3038  134.8063  155.6648 N.ar    1  UNL1       -0.2245
     25 C         142.8167  134.1083  154.4297 C.ar    1  UNL1        0.1006
     26 C         141.5395  134.5451  153.7757 C.ar    1  UNL1        0.0213
     27 C         140.7493  135.6800  154.3567 C.ar    1  UNL1        0.0113
     28 C         141.2364  136.3780  155.5918 C.ar    1  UNL1        0.0697
     29 S         140.6753  137.5195  156.3869 S.2     1  UNL1       -0.0267
@<TRIPOS>BOND
     1    14    15    2
     2    15    16    1
     3    16    17    1
     4    17    18    1
     5    18    19    1
     6    19     8    1
     7     8     9    1
     8     9    10    1
     9    10    11    1
    10    11     7    1
    11     7     1    1
    12     1     2   ar
    13     2     3   ar
    14     3     4   ar
    15     4    20    1
    16    20    21    1
    17    21    22   ar
    18    22    23   ar
    19    23    24   ar
    20    24    25   ar
    21    25    26   ar
    22    26    27   ar
    23    27    28   ar
    24    28    29   ar
    25     4     5   ar
    26     5     6   ar
    27    11    12    1
    28    12    13    1
    29    19    15   am
    30    13     8    1
    31     6     1   ar
    32    29    21   ar
    33    28    23   ar
@<TRIPOS>MOLECULE
*****
 29 33 0 0 0
SMALL
GASTEIGER

@<TRIPOS>ATOM
      1 C         138.6477  138.8547  162.9005 C.ar    1  UNL1       -0.0059
      2 C         138.1630  140.0975  163.5863 C.ar    1  UNL1        0.0002
      3 C         138.0413  140.1304  165.0811 C.ar    1  UNL1        0.0373
      4 C         138.4045  138.9204  165.8899 C.ar    1  UNL1        0.1477
      5 C         138.8892  137.6776  165.2040 C.ar    1  UNL1        0.0373
      6 C         139.0108  137.6447  163.7093 C.ar    1  UNL1        0.0002
      7 C         138.7694  138.8218  161.4057 C.3     1  UNL1        0.0992
      8 C         140.1386  142.4844  159.1786 C.3     1  UNL1        0.0781
      9 C         141.1309  141.6520  159.9352 C.3     1  UNL1        0.0372
     10 C         140.6745  140.4311  160.6776 C.3     1  UNL1        0.0741
     11 N         139.2258  140.0426  160.6634 N.3     1  UNL1       -0.2689
     12 C         138.2335  140.8750  159.9067 C.3     1  UNL1        0.0741
     13 C         138.6898  142.0958  159.1643 C.3     1  UNL1        0.0372
     14 O         142.1387  144.7925  160.3282 O.2     1  UNL1       -0.2749
     15 C         141.5144  144.7662  158.9646 C.2     1  UNL1        0.2256
     16 C         141.6997  145.7961  157.8900 C.3     1  UNL1        0.0870
     17 C         140.8949  145.3718  156.6974 C.3     1  UNL1        0.0311
     18 C         140.2122  144.0795  157.0350 C.3     1  UNL1        0.0938
     19 N         140.5950  143.7052  158.4362 N.am    1  UNL1       -0.2811
     20 O         138.2828  138.9533  167.3846 O.3     1  UNL1       -0.4313
     21 C         139.2219  139.7966  168.1951 C.ar    1  UNL1        0.2642
     22 N         139.1822  139.9785  169.6835 N.ar    1  UNL1       -0.1859
     23 C         140.3013  140.9004  170.0679 C.ar    1  UNL1        0.1720
     24 N         140.7488  141.4367  171.3953 N.ar    1  UNL1       -0.2245
     25 C         141.9277  142.3610  171.4718 C.ar    1  UNL1        0.1006
     26 C         142.6590  142.7489  170.2209 C.ar    1  UNL1        0.0213
     27 C         142.2115  142.2125  168.8935 C.ar    1  UNL1        0.0113
     28 C         141.0326  141.2883  168.8170 C.ar    1  UNL1        0.0697
     29 S         140.3655  140.6061  167.6596 S.2     1  UNL1       -0.0267
@<TRIPOS>BOND
     1    14    15    2
     2    15    16    1
     3    16    17    1
     4    17    18    1
     5    18    19    1
     6    19     8    1
     7     8     9    1
     8     9    10    1
     9    10    11    1
    10    11     7    1
    11     7     1    1
    12     1     2   ar
    13     2     3   ar
    14     3     4   ar
    15     4    20    1
    16    20    21    1
    17    21    22   ar
    18    22    23   ar
    19    23    24   ar
    20    24    25   ar
    21    25    26   ar
    22    26    27   ar
    23    27    28   ar
    24    28    29   ar
    25     4     5   ar
    26     5     6   ar
    27    11    12    1
    28    12    13    1
    29    19    15   am
    30    13     8    1
    31     6     1   ar
    32    29    21   ar
    33    28    23   ar
@<TRIPOS>MOLECULE
*****
 29 33 0 0 0
SMALL
GASTEIGER

@<TRIPOS>ATOM
      1 C         138.6488  138.6752  162.9483 C.ar    1  UNL1       -0.0059
      2 C         138.1831  139.9561  163.5747 C.ar    1  UNL1        0.0002
      3 C         138.0493  140.0567  165.0654 C.ar    1  UNL1        0.0373
      4 C         138.3813  138.8765  165.9296 C.ar    1  UNL1        0.1477
      5 C         138.8471  137.5956  165.3031 C.ar    1  UNL1        0.0373
      6 C         138.9808  137.4950  163.8125 C.ar    1  UNL1        0.0002
      7 C         138.7826  138.5745  161.4576 C.3     1  UNL1        0.0992
      8 C         142.2977  140.4669  159.3810 C.3     1  UNL1        0.0781
      9 C         140.9406  140.5043  158.7431 C.3     1  UNL1        0.0372
     10 C         139.7689  139.8735  159.4354 C.3     1  UNL1        0.0741
     11 N         139.9543  139.2053  160.7654 N.3     1  UNL1       -0.2689
     12 C         141.3114  139.1678  161.4033 C.3     1  UNL1        0.0741
     13 C         142.4831  139.7986  160.7111 C.3     1  UNL1        0.0372
     14 O         143.6558  143.3361  160.1379 O.2     1  UNL1       -0.2749
     15 C         144.0937  142.4165  159.0367 C.2     1  UNL1        0.2256
     16 C         145.2326  142.6542  158.0901 C.3     1  UNL1        0.0870
     17 C         145.3123  141.4824  157.1571 C.3     1  UNL1        0.0311
     18 C         144.2226  140.5204  157.5271 C.3     1  UNL1        0.0938
     19 N         143.4694  141.0977  158.6888 N.am    1  UNL1       -0.2811
     20 O         138.2476  138.9772  167.4202 O.3     1  UNL1       -0.4313
     21 C         139.2227  139.8021  168.2067 C.ar    1  UNL1        0.2642
     22 N         139.1775  140.0487  169.6856 N.ar    1  UNL1       -0.1859
     23 C         140.3411  140.9243  170.0453 C.ar    1  UNL1        0.1720
     24 N         140.8034  141.4915  171.3547 N.ar    1  UNL1       -0.2245
     25 C         142.0300  142.3531  171.4076 C.ar    1  UNL1        0.1006
     26 C         142.7944  142.6477  170.1510 C.ar    1  UNL1        0.0213
     27 C         142.3321  142.0805  168.8416 C.ar    1  UNL1        0.0113
     28 C         141.1055  141.2188  168.7887 C.ar    1  UNL1        0.0697
     29 S         140.4143  140.5253  167.6524 S.2     1  UNL1       -0.0267
@<TRIPOS>BOND
     1    14    15    2
     2    15    16    1
     3    16    17    1
     4    17    18    1
     5    18    19    1
     6    19     8    1
     7     8     9    1
     8     9    10    1
     9    10    11    1
    10    11     7    1
    11     7     1    1
    12     1     2   ar
    13     2     3   ar
    14     3     4   ar
    15     4    20    1
    16    20    21    1
    17    21    22   ar
    18    22    23   ar
    19    23    24   ar
    20    24    25   ar
    21    25    26   ar
    22    26    27   ar
    23    27    28   ar
    24    28    29   ar
    25     4     5   ar
    26     5     6   ar
    27    11    12    1
    28    12    13    1
    29    19    15   am
    30    13     8    1
    31     6     1   ar
    32    29    21   ar
    33    28    23   ar
@<TRIPOS>MOLECULE
*****
 29 33 0 0 0
SMALL
GASTEIGER

@<TRIPOS>ATOM
      1 C         144.4124  140.2539  162.1381 C.ar    1  UNL1       -0.0059
      2 C         144.3193  141.5304  161.3561 C.ar    1  UNL1        0.0002
      3 C         143.7613  141.5180  159.9637 C.ar    1  UNL1        0.0373
      4 C         143.2963  140.2290  159.3535 C.ar    1  UNL1        0.1477
      5 C         143.3894  138.9524  160.1357 C.ar    1  UNL1        0.0373
      6 C         143.9474  138.9649  161.5279 C.ar    1  UNL1        0.0002
      7 C         144.9704  140.2662  163.5305 C.3     1  UNL1        0.0992
      8 C         142.1909  140.2130  167.0690 C.3     1  UNL1        0.0781
      9 C         142.6723  138.9229  166.4740 C.3     1  UNL1        0.0372
     10 C         143.5988  138.9407  165.2944 C.3     1  UNL1        0.0741
     11 N         144.0439  140.2485  164.7100 N.3     1  UNL1       -0.2689
     12 C         143.5625  141.5385  165.3050 C.3     1  UNL1        0.0741
     13 C         142.6360  141.5208  166.4845 C.3     1  UNL1        0.0372
     14 O         143.0284  139.5682  170.1565 O.2     1  UNL1       -0.2749
     15 C         141.6494  139.8989  169.6677 C.2     1  UNL1        0.2256
     16 C         140.4131  139.9912  170.5122 C.3     1  UNL1        0.0870
     17 C         139.2642  140.3446  169.6150 C.3     1  UNL1        0.0311
     18 C         139.7903  140.4707  168.2160 C.3     1  UNL1        0.0938
     19 N         141.2644  140.1952  168.2485 N.am    1  UNL1       -0.2811
     20 O         142.7383  140.2166  157.9613 O.3     1  UNL1       -0.4313
     21 C         142.6262  138.9233  157.2097 C.ar    1  UNL1        0.2642
     22 N         143.7675  138.1271  156.6499 N.ar    1  UNL1       -0.1859
     23 C         143.1998  136.9109  155.9802 C.ar    1  UNL1        0.1720
     24 N         143.8488  135.7686  155.2564 N.ar    1  UNL1       -0.2245
     25 C         143.0056  134.6709  154.6785 C.ar    1  UNL1        0.1006
     26 C         141.5134  134.7155  154.8244 C.ar    1  UNL1        0.0213
     27 C         140.8644  135.8577  155.5482 C.ar    1  UNL1        0.0113
     28 C         141.7076  136.9554  156.1261 C.ar    1  UNL1        0.0697
     29 S         141.3531  138.1992  156.8860 S.2     1  UNL1       -0.0267
@<TRIPOS>BOND
     1    14    15    2
     2    15    16    1
     3    16    17    1
     4    17    18    1
     5    18    19    1
     6    19     8    1
     7     8     9    1
     8     9    10    1
     9    10    11    1
    10    11     7    1
    11     7     1    1
    12     1     2   ar
    13     2     3   ar
    14     3     4   ar
    15     4    20    1
    16    20    21    1
    17    21    22   ar
    18    22    23   ar
    19    23    24   ar
    20    24    25   ar
    21    25    26   ar
    22    26    27   ar
    23    27    28   ar
    24    28    29   ar
    25     4     5   ar
    26     5     6   ar
    27    11    12    1
    28    12    13    1
    29    19    15   am
    30    13     8    1
    31     6     1   ar
    32    29    21   ar
    33    28    23   ar
@<TRIPOS>MOLECULE
*****
 29 33 0 0 0
SMALL
GASTEIGER

@<TRIPOS>ATOM
      1 C         140.8992  137.6865  162.6029 C.ar    1  UNL1       -0.0059
      2 C         142.1852  137.8860  161.8571 C.ar    1  UNL1        0.0002
      3 C         142.1598  138.3031  160.4164 C.ar    1  UNL1        0.0373
      4 C         140.8484  138.5206  159.7216 C.ar    1  UNL1        0.1477
      5 C         139.5623  138.3211  160.4675 C.ar    1  UNL1        0.0373
      6 C         139.5877  137.9041  161.9080 C.ar    1  UNL1        0.0002
      7 C         140.9245  137.2694  164.0435 C.3     1  UNL1        0.0992
      8 C         140.4550  140.3529  167.2872 C.3     1  UNL1        0.0781
      9 C         139.2422  139.7818  166.6140 C.3     1  UNL1        0.0372
     10 C         139.3988  138.7540  165.5328 C.3     1  UNL1        0.0741
     11 N         140.7680  138.2972  165.1247 N.3     1  UNL1       -0.2689
     12 C         141.9807  138.8683  165.7979 C.3     1  UNL1        0.0741
     13 C         141.8242  139.8961  166.8791 C.3     1  UNL1        0.0372
     14 O         139.1920  139.8407  170.2524 O.2     1  UNL1       -0.2749
     15 C         139.7179  141.1453  169.7314 C.2     1  UNL1        0.2256
     16 C         139.7557  142.4435  170.4818 C.3     1  UNL1        0.0870
     17 C         140.3596  143.4813  169.5827 C.3     1  UNL1        0.0311
     18 C         140.6950  142.8244  168.2766 C.3     1  UNL1        0.0938
     19 N         140.2985  141.3807  168.3684 N.am    1  UNL1       -0.2811
     20 O         140.8230  138.9377  158.2810 O.3     1  UNL1       -0.4313
     21 C         142.0372  139.5615  157.6592 C.ar    1  UNL1        0.2642
     22 N         143.1953  138.8246  157.0545 N.ar    1  UNL1       -0.1859
     23 C         144.1803  139.8394  156.5545 C.ar    1  UNL1        0.1720
     24 N         145.5065  139.6976  155.8682 N.ar    1  UNL1       -0.2245
     25 C         146.2833  140.9199  155.4777 C.ar    1  UNL1        0.1006
     26 C         145.7340  142.2840  155.7735 C.ar    1  UNL1        0.0213
     27 C         144.4078  142.4258  156.4598 C.ar    1  UNL1        0.0113
     28 C         143.6310  141.2035  156.8503 C.ar    1  UNL1        0.0697
     29 S         142.3065  141.0317  157.5331 S.2     1  UNL1       -0.0267
@<TRIPOS>BOND
     1    14    15    2
     2    15    16    1
     3    16    17    1
     4    17    18    1
     5    18    19    1
     6    19     8    1
     7     8     9    1
     8     9    10    1
     9    10    11    1
    10    11     7    1
    11     7     1    1
    12     1     2   ar
    13     2     3   ar
    14     3     4   ar
    15     4    20    1
    16    20    21    1
    17    21    22   ar
    18    22    23   ar
    19    23    24   ar
    20    24    25   ar
    21    25    26   ar
    22    26    27   ar
    23    27    28   ar
    24    28    29   ar
    25     4     5   ar
    26     5     6   ar
    27    11    12    1
    28    12    13    1
    29    19    15   am
    30    13     8    1
    31     6     1   ar
    32    29    21   ar
    33    28    23   ar
@<TRIPOS>MOLECULE
*****
 29 33 0 0 0
SMALL
GASTEIGER

@<TRIPOS>ATOM
      1 C         138.8383  138.6522  163.0852 C.ar    1  UNL1       -0.0059
      2 C         139.8759  137.9223  162.2849 C.ar    1  UNL1        0.0002
      3 C         140.0374  138.2141  160.8224 C.ar    1  UNL1        0.0373
      4 C         139.1612  139.2358  160.1603 C.ar    1  UNL1        0.1477
      5 C         138.1235  139.9657  160.9607 C.ar    1  UNL1        0.0373
      6 C         137.9621  139.6739  162.4231 C.ar    1  UNL1        0.0002
      7 C         138.6768  138.3604  164.5477 C.3     1  UNL1        0.0992
      8 C         140.9670  140.7614  167.5875 C.3     1  UNL1        0.0781
      9 C         139.6355  140.1712  167.9465 C.3     1  UNL1        0.0372
     10 C         138.8721  139.3708  166.9332 C.3     1  UNL1        0.0741
     11 N         139.4402  139.1607  165.5610 N.3     1  UNL1       -0.2689
     12 C         140.7716  139.7509  165.2019 C.3     1  UNL1        0.0741
     13 C         141.5350  140.5513  166.2151 C.3     1  UNL1        0.0372
     14 O         139.9609  143.5245  169.0026 O.2     1  UNL1       -0.2749
     15 C         141.2679  142.8318  169.2512 C.2     1  UNL1        0.2256
     16 C         142.3420  143.2875  170.1938 C.3     1  UNL1        0.0870
     17 C         143.4683  142.2991  170.1260 C.3     1  UNL1        0.0311
     18 C         143.0902  141.2325  169.1414 C.3     1  UNL1        0.0938
     19 N         141.7303  141.5617  168.6007 N.am    1  UNL1       -0.2811
     20 O         139.3226  139.5276  158.6979 O.3     1  UNL1       -0.4313
     21 C         140.3088  138.7459  157.8815 C.ar    1  UNL1        0.2642
     22 N         141.7905  138.9739  157.8329 N.ar    1  UNL1       -0.1859
     23 C         142.3838  137.9679  156.8917 C.ar    1  UNL1        0.1720
     24 N         143.7953  137.7158  156.4513 N.ar    1  UNL1       -0.2245
     25 C         144.0917  136.6139  155.4777 C.ar    1  UNL1        0.1006
     26 C         142.9766  135.7641  154.9445 C.ar    1  UNL1        0.0213
     27 C         141.5651  136.0162  155.3849 C.ar    1  UNL1        0.0113
     28 C         141.2687  137.1180  156.3585 C.ar    1  UNL1        0.0697
     29 S         139.9863  137.5989  156.9702 S.2     1  UNL1       -0.0267
@<TRIPOS>BOND
     1    14    15    2
     2    15    16    1
     3    16    17    1
     4    17    18    1
     5    18    19    1
     6    19     8    1
     7     8     9    1
     8     9    10    1
     9    10    11    1
    10    11     7    1
    11     7     1    1
    12     1     2   ar
    13     2     3   ar
    14     3     4   ar
    15     4    20    1
    16    20    21    1
    17    21    22   ar
    18    22    23   ar
    19    23    24   ar
    20    24    25   ar
    21    25    26   ar
    22    26    27   ar
    23    27    28   ar
    24    28    29   ar
    25     4     5   ar
    26     5     6   ar
    27    11    12    1
    28    12    13    1
    29    19    15   am
    30    13     8    1
    31     6     1   ar
    32    29    21   ar
    33    28    23   ar
@<TRIPOS>MOLECULE
*****
 29 33 0 0 0
SMALL
GASTEIGER

@<TRIPOS>ATOM
      1 C         139.1751  138.1643  162.6145 C.ar    1  UNL1       -0.0059
      2 C         140.2348  138.0337  161.5610 C.ar    1  UNL1        0.0002
      3 C         140.0030  138.5969  160.1901 C.ar    1  UNL1        0.0373
      4 C         138.7115  139.2907  159.8729 C.ar    1  UNL1        0.1477
      5 C         137.6518  139.4212  160.9265 C.ar    1  UNL1        0.0373
      6 C         137.8836  138.8580  162.2972 C.ar    1  UNL1        0.0002
      7 C         139.4068  137.6010  163.9853 C.3     1  UNL1        0.0992
      8 C         140.0424  140.3679  167.4768 C.3     1  UNL1        0.0781
      9 C         141.1175  140.2049  166.4436 C.3     1  UNL1        0.0372
     10 C         140.9057  139.2826  165.2797 C.3     1  UNL1        0.0741
     11 N         139.6187  138.5233  165.1491 N.3     1  UNL1       -0.2689
     12 C         138.5435  138.6863  166.1823 C.3     1  UNL1        0.0741
     13 C         138.7553  139.6086  167.3461 C.3     1  UNL1        0.0372
     14 O         140.0738  139.5081  170.6247 O.2     1  UNL1       -0.2749
     15 C         140.2687  140.8950  170.0875 C.2     1  UNL1        0.2256
     16 C         140.5122  142.1302  170.9029 C.3     1  UNL1        0.0870
     17 C         140.6482  143.2888  169.9600 C.3     1  UNL1        0.0311
     18 C         140.4888  142.7696  168.5618 C.3     1  UNL1        0.0938
     19 N         140.2542  141.2902  168.6406 N.am    1  UNL1       -0.2811
     20 O         138.4797  139.8539  158.5021 O.3     1  UNL1       -0.4313
     21 C         139.0025  141.2157  158.1525 C.ar    1  UNL1        0.2642
     22 N         138.9717  142.4261  159.0380 N.ar    1  UNL1       -0.1859
     23 C         139.5981  143.5646  158.2888 C.ar    1  UNL1        0.1720
     24 N         139.8419  144.9973  158.6603 N.ar    1  UNL1       -0.2245
     25 C         140.5037  145.9232  157.6833 C.ar    1  UNL1        0.1006
     26 C         140.9216  145.4165  156.3347 C.ar    1  UNL1        0.0213
     27 C         140.6778  143.9839  155.9632 C.ar    1  UNL1        0.0113
     28 C         140.0161  143.0580  156.9403 C.ar    1  UNL1        0.0697
     29 S         139.6480  141.6063  156.8560 S.2     1  UNL1       -0.0267
@<TRIPOS>BOND
     1    14    15    2
     2    15    16    1
     3    16    17    1
     4    17    18    1
     5    18    19    1
     6    19     8    1
     7     8     9    1
     8     9    10    1
     9    10    11    1
    10    11     7    1
    11     7     1    1
    12     1     2   ar
    13     2     3   ar
    14     3     4   ar
    15     4    20    1
    16    20    21    1
    17    21    22   ar
    18    22    23   ar
    19    23    24   ar
    20    24    25   ar
    21    25    26   ar
    22    26    27   ar
    23    27    28   ar
    24    28    29   ar
    25     4     5   ar
    26     5     6   ar
    27    11    12    1
    28    12    13    1
    29    19    15   am
    30    13     8    1
    31     6     1   ar
    32    29    21   ar
    33    28    23   ar
@<TRIPOS>MOLECULE
*****
 29 33 0 0 0
SMALL
GASTEIGER

@<TRIPOS>ATOM
      1 C         137.7995  141.3138  161.8200 C.ar    1  UNL1       -0.0059
      2 C         137.8643  139.9235  161.2606 C.ar    1  UNL1        0.0002
      3 C         138.3831  139.6975  159.8714 C.ar    1  UNL1        0.0373
      4 C         138.8372  140.8617  159.0417 C.ar    1  UNL1        0.1477
      5 C         138.7725  142.2520  159.6012 C.ar    1  UNL1        0.0373
      6 C         138.2536  142.4780  160.9903 C.ar    1  UNL1        0.0002
      7 C         137.2806  141.5398  163.2092 C.3     1  UNL1        0.0992
      8 C         139.8310  140.4840  166.7632 C.3     1  UNL1        0.0781
      9 C         139.8700  141.8729  166.1982 C.3     1  UNL1        0.0372
     10 C         139.0199  142.2249  165.0135 C.3     1  UNL1        0.0741
     11 N         138.1307  141.1879  164.3938 N.3     1  UNL1       -0.2689
     12 C         138.0917  139.7989  164.9588 C.3     1  UNL1        0.0741
     13 C         138.9418  139.4469  166.1435 C.3     1  UNL1        0.0372
     14 O         138.7735  140.0368  169.8179 O.2     1  UNL1       -0.2749
     15 C         140.1950  139.9265  169.3519 C.2     1  UNL1        0.2256
     16 C         141.3800  139.5912  170.2082 C.3     1  UNL1        0.0870
     17 C         142.5985  139.5895  169.3334 C.3     1  UNL1        0.0311
     18 C         142.1665  139.9238  167.9364 C.3     1  UNL1        0.0938
     19 N         140.6811  140.1320  167.9478 N.am    1  UNL1       -0.2811
     20 O         139.3561  140.6357  157.6526 O.3     1  UNL1       -0.4313
     21 C         140.1193  139.3850  157.3313 C.ar    1  UNL1        0.2642
     22 N         141.4463  138.9892  157.9078 N.ar    1  UNL1       -0.1859
     23 C         141.8367  137.6701  157.3099 C.ar    1  UNL1        0.1720
     24 N         143.0405  136.7968  157.5046 N.ar    1  UNL1       -0.2245
     25 C         143.1586  135.5039  156.7533 C.ar    1  UNL1        0.1006
     26 C         142.0728  135.0844  155.8073 C.ar    1  UNL1        0.0213
     27 C         140.8690  135.9577  155.6125 C.ar    1  UNL1        0.0113
     28 C         140.7509  137.2506  156.3638 C.ar    1  UNL1        0.0697
     29 S         139.6895  138.3104  156.3770 S.2     1  UNL1       -0.0267
@<TRIPOS>BOND
     1    14    15    2
     2    15    16    1
     3    16    17    1
     4    17    18    1
     5    18    19    1
     6    19     8    1
     7     8     9    1
     8     9    10    1
     9    10    11    1
    10    11     7    1
    11     7     1    1
    12     1     2   ar
    13     2     3   ar
    14     3     4   ar
    15     4    20    1
    16    20    21    1
    17    21    22   ar
    18    22    23   ar
    19    23    24   ar
    20    24    25   ar
    21    25    26   ar
    22    26    27   ar
    23    27    28   ar
    24    28    29   ar
    25     4     5   ar
    26     5     6   ar
    27    11    12    1
    28    12    13    1
    29    19    15   am
    30    13     8    1
    31     6     1   ar
    32    29    21   ar
    33    28    23   ar
@<TRIPOS>MOLECULE
*****
 29 33 0 0 0
SMALL
GASTEIGER

@<TRIPOS>ATOM
      1 C         140.1956  138.5496  159.0924 C.ar    1  UNL1       -0.0059
      2 C         141.5728  138.4453  159.6774 C.ar    1  UNL1        0.0002
      3 C         142.6790  137.8151  158.8840 C.ar    1  UNL1        0.0373
      4 C         142.4078  137.2893  157.5056 C.ar    1  UNL1        0.1477
      5 C         141.0305  137.3936  156.9206 C.ar    1  UNL1        0.0373
      6 C         139.9244  138.0238  157.7140 C.ar    1  UNL1        0.0002
      7 C         139.0894  139.1797  159.8858 C.3     1  UNL1        0.0992
      8 C         139.5477  139.7501  164.3259 C.3     1  UNL1        0.0781
      9 C         139.1321  138.4162  163.7800 C.3     1  UNL1        0.0372
     10 C         138.9794  138.2261  162.2999 C.3     1  UNL1        0.0741
     11 N         139.2422  139.3698  161.3658 N.3     1  UNL1       -0.2689
     12 C         139.6577  140.7038  161.9116 C.3     1  UNL1        0.0741
     13 C         139.8105  140.8939  163.3916 C.3     1  UNL1        0.0372
     14 O         137.4749  138.7028  166.6185 O.2     1  UNL1       -0.2749
     15 C         138.7477  139.4589  166.8597 C.2     1  UNL1        0.2256
     16 C         139.2913  139.8663  168.1970 C.3     1  UNL1        0.0870
     17 C         140.5800  140.5995  167.9698 C.3     1  UNL1        0.0311
     18 C         140.8329  140.6452  166.4919 C.3     1  UNL1        0.0938
     19 N         139.7005  139.9403  165.8059 N.am    1  UNL1       -0.2811
     20 O         143.5139  136.6592  156.7122 O.3     1  UNL1       -0.4313
     21 C         143.4745  135.1915  156.4049 C.ar    1  UNL1        0.2642
     22 N         143.2677  134.5794  155.0512 N.ar    1  UNL1       -0.1859
     23 C         143.3003  133.0879  155.2070 C.ar    1  UNL1        0.1720
     24 N         143.1527  131.9717  154.2159 N.ar    1  UNL1       -0.2245
     25 C         143.2321  130.5459  154.6748 C.ar    1  UNL1        0.1006
     26 C         143.4591  130.2362  156.1248 C.ar    1  UNL1        0.0213
     27 C         143.6068  131.3523  157.1159 C.ar    1  UNL1        0.0113
     28 C         143.5274  132.7782  156.6571 C.ar    1  UNL1        0.0697
     29 S         143.6350  134.0783  157.3974 S.2     1  UNL1       -0.0267
@<TRIPOS>BOND
     1    14    15    2
     2    15    16    1
     3    16    17    1
     4    17    18    1
     5    18    19    1
     6    19     8    1
     7     8     9    1
     8     9    10    1
     9    10    11    1
    10    11     7    1
    11     7     1    1
    12     1     2   ar
    13     2     3   ar
    14     3     4   ar
    15     4    20    1
    16    20    21    1
    17    21    22   ar
    18    22    23   ar
    19    23    24   ar
    20    24    25   ar
    21    25    26   ar
    22    26    27   ar
    23    27    28   ar
    24    28    29   ar
    25     4     5   ar
    26     5     6   ar
    27    11    12    1
    28    12    13    1
    29    19    15   am
    30    13     8    1
    31     6     1   ar
    32    29    21   ar
    33    28    23   ar
