@<TRIPOS>MOLECULE
*****
 32 35 0 0 0
SMALL
GASTEIGER

@<TRIPOS>ATOM
      1 C         142.6200  140.4136  165.6026 C.2     1  UNL1        0.2538
      2 O         142.7876  139.2721  166.5612 O.2     1  UNL1       -0.2695
      3 N         142.2995  141.7851  166.1184 N.am    1  UNL1       -0.2400
      4 C         142.1319  142.9267  165.1599 C.ar    1  UNL1        0.1482
      5 N         140.7703  143.2686  164.6315 N.ar    1  UNL1       -0.2279
      6 C         140.6027  144.4101  163.6729 C.ar    1  UNL1        0.1004
      7 C         141.7966  145.2097  163.2428 C.ar    1  UNL1        0.0216
      8 C         143.1583  144.8679  163.7711 C.ar    1  UNL1        0.0158
      9 C         143.3259  143.7263  164.7297 C.ar    1  UNL1        0.0896
     10 CL        144.6874  143.3844  165.2581 Cl      1  UNL1       -0.0793
     11 C         142.1467  142.0152  167.5928 C.3     1  UNL1        0.0972
     12 C         143.3554  142.2849  168.4391 C.3     1  UNL1        0.0231
     13 C         143.2025  142.5149  169.9134 C.3     1  UNL1        0.0188
     14 C         141.8409  142.4754  170.5414 C.3     1  UNL1        0.0687
     15 N         140.6321  142.2057  169.6951 N.3     1  UNL1       -0.2961
     16 C         140.7850  141.9757  168.2208 C.3     1  UNL1        0.0890
     17 H         140.0109  143.0072  169.8052 H       1  UNL1        0.1233
     18 C         143.0785  139.7235  161.1796 C.ar    1  UNL1        0.0192
     19 C         144.2864  140.0011  162.0245 C.ar    1  UNL1        0.0017
     20 C         144.1336  140.2311  163.4989 C.ar    1  UNL1        0.0046
     21 C         142.7728  140.1836  164.1283 C.ar    1  UNL1        0.0539
     22 C         141.5649  139.9059  163.2833 C.ar    1  UNL1        0.0046
     23 C         141.7177  139.6759  161.8090 C.ar    1  UNL1        0.0017
     24 C         142.7468  138.0670  157.5884 C.ar    1  UNL1        0.1511
     25 C         143.5368  139.0333  156.7565 C.ar    1  UNL1        0.1331
     26 N         144.1740  140.2296  157.3989 N.ar    1  UNL1       -0.2378
     27 C         144.0213  140.4597  158.8732 C.ar    1  UNL1        0.1180
     28 C         143.2313  139.4934  159.7052 C.ar    1  UNL1        0.1018
     29 N         142.5940  138.2971  159.0628 N.ar    1  UNL1       -0.2275
     30 C         140.7230  136.9714  156.3827 C.3     1  UNL1        0.1137
     31 N         142.1095  136.8707  156.9460 N.pl3   1  UNL1       -0.2885
     32 C         142.8588  135.5737  156.8670 C.3     1  UNL1        0.1137
@<TRIPOS>BOND
     1    30    31    1
     2    31    32    1
     3    31    24    1
     4    24    25   ar
     5    25    26   ar
     6    26    27   ar
     7    27    28   ar
     8    28    18    1
     9    18    19   ar
    10    19    20   ar
    11    20    21   ar
    12    21     1    1
    13     1     2    2
    14     1     3   am
    15     3     4    1
    16     4     5   ar
    17     5     6   ar
    18     6     7   ar
    19     7     8   ar
    20     8     9   ar
    21     9    10    1
    22    11     3    1
    23    11    12    1
    24    12    13    1
    25    13    14    1
    26    14    15    1
    27    15    16    1
    28    21    22   ar
    29    22    23   ar
    30    28    29   ar
    31    29    24   ar
    32    23    18   ar
    33     9     4   ar
    34    16    11    1
    35    15    17    1
@<TRIPOS>MOLECULE
*****
 32 35 0 0 0
SMALL
GASTEIGER

@<TRIPOS>ATOM
      1 C         139.8009  142.3792  165.6116 C.2     1  UNL1        0.2538
      2 O         139.6018  143.7090  166.2765 O.2     1  UNL1       -0.2695
      3 N         140.3424  141.2216  166.3969 N.am    1  UNL1       -0.2400
      4 C         140.5415  139.8918  165.7321 C.ar    1  UNL1        0.1482
      5 N         141.8832  139.5287  165.1681 N.ar    1  UNL1       -0.2279
      6 C         142.0823  138.1989  164.5032 C.ar    1  UNL1        0.1004
      7 C         140.9398  137.2323  164.4023 C.ar    1  UNL1        0.0216
      8 C         139.5981  137.5954  164.9663 C.ar    1  UNL1        0.0158
      9 C         139.3989  138.9252  165.6312 C.ar    1  UNL1        0.0896
     10 CL        138.0573  139.2883  166.1951 Cl      1  UNL1       -0.0793
     11 C         140.6848  141.3938  167.8472 C.3     1  UNL1        0.0972
     12 C         139.7802  140.8312  168.9033 C.3     1  UNL1        0.0231
     13 C         140.1226  141.0034  170.3534 C.3     1  UNL1        0.0188
     14 C         141.3696  141.7381  170.7476 C.3     1  UNL1        0.0687
     15 N         142.2741  142.3006  169.6915 N.3     1  UNL1       -0.2961
     16 C         141.9317  142.1285  168.2413 C.3     1  UNL1        0.0890
     17 H         143.1901  141.8739  169.8305 H       1  UNL1        0.1233
     18 C         138.7739  141.8626  161.2610 C.ar    1  UNL1        0.0192
     19 C         137.7056  141.7264  162.3050 C.ar    1  UNL1        0.0017
     20 C         138.0479  141.8986  163.7553 C.ar    1  UNL1        0.0046
     21 C         139.4586  142.2070  164.1614 C.ar    1  UNL1        0.0539
     22 C         140.5269  142.3432  163.1173 C.ar    1  UNL1        0.0046
     23 C         140.1846  142.1710  161.6671 C.ar    1  UNL1        0.0017
     24 C         138.2416  142.6703  157.4120 C.ar    1  UNL1        0.1511
     25 C         137.7470  141.3461  156.9102 C.ar    1  UNL1        0.1331
     26 N         137.5948  140.1940  157.8587 N.ar    1  UNL1       -0.2378
     27 C         137.9371  140.3662  159.3089 C.ar    1  UNL1        0.1180
     28 C         138.4316  141.6904  159.8107 C.ar    1  UNL1        0.1018
     29 N         138.5838  142.8425  158.8622 N.ar    1  UNL1       -0.2275
     30 C         137.3631  144.0594  155.3999 C.3     1  UNL1        0.1137
     31 N         138.3938  143.8224  156.4636 N.pl3   1  UNL1       -0.2885
     32 C         139.5767  144.7375  156.5788 C.3     1  UNL1        0.1137
@<TRIPOS>BOND
     1    30    31    1
     2    31    32    1
     3    31    24    1
     4    24    25   ar
     5    25    26   ar
     6    26    27   ar
     7    27    28   ar
     8    28    18    1
     9    18    19   ar
    10    19    20   ar
    11    20    21   ar
    12    21     1    1
    13     1     2    2
    14     1     3   am
    15     3     4    1
    16     4     5   ar
    17     5     6   ar
    18     6     7   ar
    19     7     8   ar
    20     8     9   ar
    21     9    10    1
    22    11     3    1
    23    11    12    1
    24    12    13    1
    25    13    14    1
    26    14    15    1
    27    15    16    1
    28    21    22   ar
    29    22    23   ar
    30    28    29   ar
    31    29    24   ar
    32    23    18   ar
    33     9     4   ar
    34    16    11    1
    35    15    17    1
@<TRIPOS>MOLECULE
*****
 32 35 0 0 0
SMALL
GASTEIGER

@<TRIPOS>ATOM
      1 C         140.1164  142.1884  166.2546 C.2     1  UNL1        0.2538
      2 O         139.9909  143.3516  167.1934 O.2     1  UNL1       -0.2695
      3 N         140.4016  140.8177  166.7928 N.am    1  UNL1       -0.2400
      4 C         140.5271  139.6545  165.8540 C.ar    1  UNL1        0.1482
      5 N         141.8685  139.2833  165.2948 N.ar    1  UNL1       -0.2279
      6 C         141.9940  138.1201  164.3561 C.ar    1  UNL1        0.1004
      7 C         140.7780  137.3282  163.9764 C.ar    1  UNL1        0.0216
      8 C         139.4364  137.6994  164.5355 C.ar    1  UNL1        0.0158
      9 C         139.3110  138.8626  165.4743 C.ar    1  UNL1        0.0896
     10 CL        137.9695  139.2338  166.0334 Cl      1  UNL1       -0.0793
     11 C         140.5614  140.6100  168.2698 C.3     1  UNL1        0.0972
     12 C         141.9214  140.6961  168.8965 C.3     1  UNL1        0.0231
     13 C         142.0811  140.4884  170.3734 C.3     1  UNL1        0.0188
     14 C         140.8807  140.1947  171.2236 C.3     1  UNL1        0.0687
     15 N         139.5207  140.1086  170.5969 N.3     1  UNL1       -0.2961
     16 C         139.3610  140.3163  169.1200 C.3     1  UNL1        0.0890
     17 H         138.9395  140.8090  171.0573 H       1  UNL1        0.1233
     18 C         139.6372  142.8113  161.8238 C.ar    1  UNL1        0.0192
     19 C         138.4372  142.5154  162.6737 C.ar    1  UNL1        0.0017
     20 C         138.5969  142.3078  164.1507 C.ar    1  UNL1        0.0046
     21 C         139.9567  142.3960  164.7777 C.ar    1  UNL1        0.0539
     22 C         141.1567  142.6919  163.9278 C.ar    1  UNL1        0.0046
     23 C         140.9970  142.8995  162.4508 C.ar    1  UNL1        0.0017
     24 C         139.9553  144.4109  158.2058 C.ar    1  UNL1        0.1511
     25 C         139.1582  143.4342  157.3929 C.ar    1  UNL1        0.1331
     26 N         138.5208  142.2498  158.0571 N.ar    1  UNL1       -0.2378
     27 C         138.6805  142.0422  159.5340 C.ar    1  UNL1        0.1180
     28 C         139.4775  143.0189  160.3468 C.ar    1  UNL1        0.1018
     29 N         140.1149  144.2032  159.6827 N.ar    1  UNL1       -0.2275
     30 C         142.0680  145.8282  157.6792 C.3     1  UNL1        0.1137
     31 N         140.5927  145.5952  157.5416 N.pl3   1  UNL1       -0.2885
     32 C         139.7547  146.5466  156.7400 C.3     1  UNL1        0.1137
@<TRIPOS>BOND
     1    30    31    1
     2    31    32    1
     3    31    24    1
     4    24    25   ar
     5    25    26   ar
     6    26    27   ar
     7    27    28   ar
     8    28    18    1
     9    18    19   ar
    10    19    20   ar
    11    20    21   ar
    12    21     1    1
    13     1     2    2
    14     1     3   am
    15     3     4    1
    16     4     5   ar
    17     5     6   ar
    18     6     7   ar
    19     7     8   ar
    20     8     9   ar
    21     9    10    1
    22    11     3    1
    23    11    12    1
    24    12    13    1
    25    13    14    1
    26    14    15    1
    27    15    16    1
    28    21    22   ar
    29    22    23   ar
    30    28    29   ar
    31    29    24   ar
    32    23    18   ar
    33     9     4   ar
    34    16    11    1
    35    15    17    1
@<TRIPOS>MOLECULE
*****
 32 35 0 0 0
SMALL
GASTEIGER

@<TRIPOS>ATOM
      1 C         141.1076  142.6417  165.9679 C.2     1  UNL1        0.2538
      2 O         140.1053  143.0723  166.9975 O.2     1  UNL1       -0.2695
      3 N         142.2953  141.8208  166.3747 N.am    1  UNL1       -0.2400
      4 C         143.2975  141.3902  165.3452 C.ar    1  UNL1        0.1482
      5 N         143.1684  140.0480  164.6881 N.ar    1  UNL1       -0.2279
      6 C         144.1707  139.6174  163.6585 C.ar    1  UNL1        0.1004
      7 C         145.3021  140.5290  163.2860 C.ar    1  UNL1        0.0216
      8 C         145.4313  141.8713  163.9431 C.ar    1  UNL1        0.0158
      9 C         144.4290  142.3019  164.9727 C.ar    1  UNL1        0.0896
     10 CL        144.5582  143.6441  165.6298 Cl      1  UNL1       -0.0793
     11 C         142.4807  141.4304  167.8112 C.3     1  UNL1        0.0972
     12 C         141.8960  140.1466  168.3209 C.3     1  UNL1        0.0231
     13 C         142.0814  139.7563  169.7573 C.3     1  UNL1        0.0188
     14 C         142.8515  140.6498  170.6839 C.3     1  UNL1        0.0687
     15 N         143.4362  141.9336  170.1742 N.3     1  UNL1       -0.2961
     16 C         143.2508  142.3239  168.7378 C.3     1  UNL1        0.0890
     17 H         144.4417  141.8850  170.3387 H       1  UNL1        0.1233
     18 C         140.5515  143.8127  161.6587 C.ar    1  UNL1        0.0192
     19 C         141.2350  144.7510  162.6086 C.ar    1  UNL1        0.0017
     20 C         141.4204  144.3607  164.0451 C.ar    1  UNL1        0.0046
     21 C         140.9223  143.0321  164.5315 C.ar    1  UNL1        0.0539
     22 C         140.2387  142.0938  163.5815 C.ar    1  UNL1        0.0046
     23 C         140.0534  142.4841  162.1451 C.ar    1  UNL1        0.0017
     24 C         139.2235  143.8303  157.9189 C.ar    1  UNL1        0.1511
     25 C         139.9953  144.9835  157.3494 C.ar    1  UNL1        0.1331
     26 N         140.9526  145.7465  158.2164 N.ar    1  UNL1       -0.2378
     27 C         141.1380  145.3562  159.6528 C.ar    1  UNL1        0.1180
     28 C         140.3661  144.2030  160.2222 C.ar    1  UNL1        0.1018
     29 N         139.4089  143.4401  159.3553 N.ar    1  UNL1       -0.2275
     30 C         137.7763  143.6672  155.7674 C.3     1  UNL1        0.1137
     31 N         138.2662  143.0674  157.0520 N.pl3   1  UNL1       -0.2885
     32 C         137.7988  141.7047  157.4696 C.3     1  UNL1        0.1137
@<TRIPOS>BOND
     1    30    31    1
     2    31    32    1
     3    31    24    1
     4    24    25   ar
     5    25    26   ar
     6    26    27   ar
     7    27    28   ar
     8    28    18    1
     9    18    19   ar
    10    19    20   ar
    11    20    21   ar
    12    21     1    1
    13     1     2    2
    14     1     3   am
    15     3     4    1
    16     4     5   ar
    17     5     6   ar
    18     6     7   ar
    19     7     8   ar
    20     8     9   ar
    21     9    10    1
    22    11     3    1
    23    11    12    1
    24    12    13    1
    25    13    14    1
    26    14    15    1
    27    15    16    1
    28    21    22   ar
    29    22    23   ar
    30    28    29   ar
    31    29    24   ar
    32    23    18   ar
    33     9     4   ar
    34    16    11    1
    35    15    17    1
@<TRIPOS>MOLECULE
*****
 32 35 0 0 0
SMALL
GASTEIGER

@<TRIPOS>ATOM
      1 C         142.7270  141.5249  166.1272 C.2     1  UNL1        0.2538
      2 O         143.3928  142.5180  167.0330 O.2     1  UNL1       -0.2695
      3 N         141.7371  140.5462  166.6858 N.am    1  UNL1       -0.2400
      4 C         141.0713  139.5531  165.7799 C.ar    1  UNL1        0.1482
      5 N         139.6935  139.8247  165.2530 N.ar    1  UNL1       -0.2279
      6 C         139.0277  138.8316  164.3471 C.ar    1  UNL1        0.1004
      7 C         139.7398  137.5670  163.9682 C.ar    1  UNL1        0.0216
      8 C         141.1177  137.2954  164.4952 C.ar    1  UNL1        0.0158
      9 C         141.7835  138.2885  165.4010 C.ar    1  UNL1        0.0896
     10 CL        143.1614  138.0169  165.9280 Cl      1  UNL1       -0.0793
     11 C         141.4129  140.5605  168.1503 C.3     1  UNL1        0.0972
     12 C         140.3077  141.4340  168.6653 C.3     1  UNL1        0.0231
     13 C         139.9835  141.4483  170.1298 C.3     1  UNL1        0.0188
     14 C         140.7646  140.5890  171.0792 C.3     1  UNL1        0.0687
     15 N         141.8699  139.7154  170.5642 N.3     1  UNL1       -0.2961
     16 C         142.1940  139.7012  169.0998 C.3     1  UNL1        0.0890
     17 H         141.6329  138.7576  170.8227 H       1  UNL1        0.1233
     18 C         143.6995  141.4820  161.7338 C.ar    1  UNL1        0.0192
     19 C         142.4550  142.1638  162.2198 C.ar    1  UNL1        0.0017
     20 C         142.1308  142.1781  163.6843 C.ar    1  UNL1        0.0046
     21 C         143.0512  141.5106  164.6627 C.ar    1  UNL1        0.0539
     22 C         144.2958  140.8288  164.1767 C.ar    1  UNL1        0.0046
     23 C         144.6199  140.8145  162.7122 C.ar    1  UNL1        0.0017
     24 C         143.8761  140.3195  157.9433 C.ar    1  UNL1        0.1511
     25 C         144.6721  141.4388  157.3403 C.ar    1  UNL1        0.1331
     26 N         145.1438  142.5725  158.2018 N.ar    1  UNL1       -0.2378
     27 C         144.8197  142.5869  159.6663 C.ar    1  UNL1        0.1180
     28 C         144.0237  141.4676  160.2692 C.ar    1  UNL1        0.1018
     29 N         143.5520  140.3339  159.4077 N.ar    1  UNL1       -0.2275
     30 C         142.6830  138.0246  157.6991 C.3     1  UNL1        0.1137
     31 N         143.4043  139.1858  157.0818 N.pl3   1  UNL1       -0.2885
     32 C         143.6539  139.2134  155.6030 C.3     1  UNL1        0.1137
@<TRIPOS>BOND
     1    30    31    1
     2    31    32    1
     3    31    24    1
     4    24    25   ar
     5    25    26   ar
     6    26    27   ar
     7    27    28   ar
     8    28    18    1
     9    18    19   ar
    10    19    20   ar
    11    20    21   ar
    12    21     1    1
    13     1     2    2
    14     1     3   am
    15     3     4    1
    16     4     5   ar
    17     5     6   ar
    18     6     7   ar
    19     7     8   ar
    20     8     9   ar
    21     9    10    1
    22    11     3    1
    23    11    12    1
    24    12    13    1
    25    13    14    1
    26    14    15    1
    27    15    16    1
    28    21    22   ar
    29    22    23   ar
    30    28    29   ar
    31    29    24   ar
    32    23    18   ar
    33     9     4   ar
    34    16    11    1
    35    15    17    1
@<TRIPOS>MOLECULE
*****
 32 35 0 0 0
SMALL
GASTEIGER

@<TRIPOS>ATOM
      1 C         143.6607  139.9827  164.0151 C.2     1  UNL1        0.2538
      2 O         145.0286  140.2553  164.5670 O.2     1  UNL1       -0.2695
      3 N         142.4634  140.0377  164.9169 N.am    1  UNL1       -0.2400
      4 C         141.0956  139.7652  164.3650 C.ar    1  UNL1        0.1482
      5 N         140.2282  140.9029  163.9145 N.ar    1  UNL1       -0.2279
      6 C         138.8603  140.6304  163.3625 C.ar    1  UNL1        0.1004
      7 C         138.3598  139.2200  163.2611 C.ar    1  UNL1        0.0216
      8 C         139.2272  138.0821  163.7116 C.ar    1  UNL1        0.0158
      9 C         140.5951  138.3547  164.2636 C.ar    1  UNL1        0.0896
     10 CL        141.4625  137.2169  164.7141 Cl      1  UNL1       -0.0793
     11 C         142.6340  140.3654  166.3708 C.3     1  UNL1        0.0972
     12 C         142.6349  141.7958  166.8221 C.3     1  UNL1        0.0231
     13 C         142.8054  142.1234  168.2759 C.3     1  UNL1        0.0188
     14 C         142.9750  141.0205  169.2784 C.3     1  UNL1        0.0687
     15 N         142.9740  139.5900  168.8270 N.3     1  UNL1       -0.2961
     16 C         142.8035  139.2625  167.3732 C.3     1  UNL1        0.0890
     17 H         142.2150  139.1247  169.3247 H       1  UNL1        0.1233
     18 C         143.1490  138.9999  159.6536 C.ar    1  UNL1        0.0192
     19 C         143.5389  137.9246  160.6240 C.ar    1  UNL1        0.0017
     20 C         143.7095  138.2521  162.0779 C.ar    1  UNL1        0.0046
     21 C         143.4902  139.6551  162.5613 C.ar    1  UNL1        0.0539
     22 C         143.1003  140.7304  161.5908 C.ar    1  UNL1        0.0046
     23 C         142.9297  140.4028  160.1371 C.ar    1  UNL1        0.0017
     24 C         142.8045  136.9141  156.2949 C.ar    1  UNL1        0.1511
     25 C         142.6373  138.0171  155.2922 C.ar    1  UNL1        0.1331
     26 N         142.6407  139.4476  155.7433 N.ar    1  UNL1       -0.2378
     27 C         142.8113  139.7752  157.1970 C.ar    1  UNL1        0.1180
     28 C         142.9785  138.6723  158.1998 C.ar    1  UNL1        0.1018
     29 N         142.9750  137.2417  157.7487 N.ar    1  UNL1       -0.2275
     30 C         142.5730  135.1534  154.3986 C.3     1  UNL1        0.1137
     31 N         142.8010  135.4835  155.8439 N.pl3   1  UNL1       -0.2885
     32 C         143.0256  134.3831  156.8381 C.3     1  UNL1        0.1137
@<TRIPOS>BOND
     1    30    31    1
     2    31    32    1
     3    31    24    1
     4    24    25   ar
     5    25    26   ar
     6    26    27   ar
     7    27    28   ar
     8    28    18    1
     9    18    19   ar
    10    19    20   ar
    11    20    21   ar
    12    21     1    1
    13     1     2    2
    14     1     3   am
    15     3     4    1
    16     4     5   ar
    17     5     6   ar
    18     6     7   ar
    19     7     8   ar
    20     8     9   ar
    21     9    10    1
    22    11     3    1
    23    11    12    1
    24    12    13    1
    25    13    14    1
    26    14    15    1
    27    15    16    1
    28    21    22   ar
    29    22    23   ar
    30    28    29   ar
    31    29    24   ar
    32    23    18   ar
    33     9     4   ar
    34    16    11    1
    35    15    17    1
@<TRIPOS>MOLECULE
*****
 32 35 0 0 0
SMALL
GASTEIGER

@<TRIPOS>ATOM
      1 C         142.8511  139.4122  166.3052 C.2     1  UNL1        0.2538
      2 O         143.5931  138.4388  167.1723 O.2     1  UNL1       -0.2695
      3 N         142.0113  140.4857  166.9315 N.am    1  UNL1       -0.2400
      4 C         141.2693  141.4591  166.0644 C.ar    1  UNL1        0.1482
      5 N         141.9249  142.7415  165.6456 N.ar    1  UNL1       -0.2279
      6 C         141.1829  143.7150  164.7784 C.ar    1  UNL1        0.1004
      7 C         139.7853  143.4059  164.3301 C.ar    1  UNL1        0.0216
      8 C         139.1296  142.1234  164.7489 C.ar    1  UNL1        0.0158
      9 C         139.8716  141.1500  165.6160 C.ar    1  UNL1        0.0896
     10 CL        139.2159  139.8676  166.0348 Cl      1  UNL1       -0.0793
     11 C         141.9134  140.5858  168.4250 C.3     1  UNL1        0.0972
     12 C         140.7425  139.9820  169.1421 C.3     1  UNL1        0.0231
     13 C         140.6447  140.0822  170.6355 C.3     1  UNL1        0.0188
     14 C         141.7179  140.7862  171.4119 C.3     1  UNL1        0.0687
     15 N         142.8888  141.3900  170.6948 N.3     1  UNL1       -0.2961
     16 C         142.9866  141.2898  169.2014 C.3     1  UNL1        0.0890
     17 H         143.7263  140.9489  171.0749 H       1  UNL1        0.1233
     18 C         143.1445  139.1119  161.8249 C.ar    1  UNL1        0.0192
     19 C         142.0867  138.3437  162.5603 C.ar    1  UNL1        0.0017
     20 C         141.9889  138.4438  164.0538 C.ar    1  UNL1        0.0046
     21 C         142.9489  139.3121  164.8118 C.ar    1  UNL1        0.0539
     22 C         144.0067  140.0803  164.0762 C.ar    1  UNL1        0.0046
     23 C         144.1045  139.9802  162.5828 C.ar    1  UNL1        0.0017
     24 C         143.8766  140.0649  158.0425 C.ar    1  UNL1        0.1511
     25 C         143.4380  138.8118  157.3445 C.ar    1  UNL1        0.1331
     26 N         142.9016  137.6587  158.1399 N.ar    1  UNL1       -0.2378
     27 C         142.8037  137.7588  159.6333 C.ar    1  UNL1        0.1180
     28 C         143.2423  139.0119  160.3313 C.ar    1  UNL1        0.1018
     29 N         143.7788  140.1649  159.5360 N.ar    1  UNL1       -0.2275
     30 C         145.5066  140.9938  156.2452 C.3     1  UNL1        0.1137
     31 N         144.4131  141.2180  157.2472 N.pl3   1  UNL1       -0.2885
     32 C         143.8561  142.5953  157.4538 C.3     1  UNL1        0.1137
@<TRIPOS>BOND
     1    30    31    1
     2    31    32    1
     3    31    24    1
     4    24    25   ar
     5    25    26   ar
     6    26    27   ar
     7    27    28   ar
     8    28    18    1
     9    18    19   ar
    10    19    20   ar
    11    20    21   ar
    12    21     1    1
    13     1     2    2
    14     1     3   am
    15     3     4    1
    16     4     5   ar
    17     5     6   ar
    18     6     7   ar
    19     7     8   ar
    20     8     9   ar
    21     9    10    1
    22    11     3    1
    23    11    12    1
    24    12    13    1
    25    13    14    1
    26    14    15    1
    27    15    16    1
    28    21    22   ar
    29    22    23   ar
    30    28    29   ar
    31    29    24   ar
    32    23    18   ar
    33     9     4   ar
    34    16    11    1
    35    15    17    1
@<TRIPOS>MOLECULE
*****
 32 35 0 0 0
SMALL
GASTEIGER

@<TRIPOS>ATOM
      1 C         142.5104  140.2392  165.7293 C.2     1  UNL1        0.2538
      2 O         142.4752  139.0393  166.6286 O.2     1  UNL1       -0.2695
      3 N         142.4055  141.6171  166.3127 N.am    1  UNL1       -0.2400
      4 C         142.4406  142.8171  165.4134 C.ar    1  UNL1        0.1482
      5 N         143.7561  143.4188  165.0167 N.ar    1  UNL1       -0.2279
      6 C         143.7912  144.6188  164.1174 C.ar    1  UNL1        0.1004
      7 C         142.5109  145.2170  163.6147 C.ar    1  UNL1        0.0216
      8 C         141.1953  144.6153  164.0113 C.ar    1  UNL1        0.0158
      9 C         141.1602  143.4153  164.9106 C.ar    1  UNL1        0.0896
     10 CL        139.8447  142.8135  165.3073 Cl      1  UNL1       -0.0793
     11 C         142.2655  141.7950  167.7956 C.3     1  UNL1        0.0972
     12 C         143.4156  142.3254  168.5992 C.3     1  UNL1        0.0231
     13 C         143.2756  142.5033  170.0820 C.3     1  UNL1        0.0188
     14 C         141.9854  142.1509  170.7611 C.3     1  UNL1        0.0687
     15 N         140.8353  141.6205  169.9575 N.3     1  UNL1       -0.2961
     16 C         140.9753  141.4426  168.4747 C.3     1  UNL1        0.0890
     17 H         140.0537  142.2591  170.1049 H       1  UNL1        0.1233
     18 C         142.9304  139.7056  161.2808 C.ar    1  UNL1        0.0192
     19 C         141.5689  139.8485  161.8938 C.ar    1  UNL1        0.0017
     20 C         141.4288  140.0264  163.3766 C.ar    1  UNL1        0.0046
     21 C         142.6504  140.0614  164.2465 C.ar    1  UNL1        0.0539
     22 C         144.0120  139.9184  163.6335 C.ar    1  UNL1        0.0046
     23 C         144.1520  139.7405  162.1507 C.ar    1  UNL1        0.0017
     24 C         142.6942  138.1046  157.6571 C.ar    1  UNL1        0.1511
     25 C         143.3505  139.1718  156.8324 C.ar    1  UNL1        0.1331
     26 N         143.8668  140.4170  157.4904 N.ar    1  UNL1       -0.2378
     27 C         143.7268  140.5949  158.9732 C.ar    1  UNL1        0.1180
     28 C         143.0705  139.5277  159.7980 C.ar    1  UNL1        0.1018
     29 N         142.5542  138.2825  159.1399 N.ar    1  UNL1       -0.2275
     30 C         140.8680  136.8850  156.2688 C.3     1  UNL1        0.1137
     31 N         142.1780  136.8594  156.9991 N.pl3   1  UNL1       -0.2885
     32 C         142.9717  135.5887  157.0713 C.3     1  UNL1        0.1137
@<TRIPOS>BOND
     1    30    31    1
     2    31    32    1
     3    31    24    1
     4    24    25   ar
     5    25    26   ar
     6    26    27   ar
     7    27    28   ar
     8    28    18    1
     9    18    19   ar
    10    19    20   ar
    11    20    21   ar
    12    21     1    1
    13     1     2    2
    14     1     3   am
    15     3     4    1
    16     4     5   ar
    17     5     6   ar
    18     6     7   ar
    19     7     8   ar
    20     8     9   ar
    21     9    10    1
    22    11     3    1
    23    11    12    1
    24    12    13    1
    25    13    14    1
    26    14    15    1
    27    15    16    1
    28    21    22   ar
    29    22    23   ar
    30    28    29   ar
    31    29    24   ar
    32    23    18   ar
    33     9     4   ar
    34    16    11    1
    35    15    17    1
@<TRIPOS>MOLECULE
*****
 32 35 0 0 0
SMALL
GASTEIGER

@<TRIPOS>ATOM
      1 C         142.6194  140.4695  165.6477 C.2     1  UNL1        0.2538
      2 O         142.7690  139.3087  166.5859 O.2     1  UNL1       -0.2695
      3 N         142.3235  141.8372  166.1879 N.am    1  UNL1       -0.2400
      4 C         142.1739  142.9979  165.2497 C.ar    1  UNL1        0.1482
      5 N         140.8125  143.4001  164.7652 N.ar    1  UNL1       -0.2279
      6 C         140.6629  144.5609  163.8270 C.ar    1  UNL1        0.1004
      7 C         141.8747  145.3195  163.3733 C.ar    1  UNL1        0.0216
      8 C         143.2363  144.9173  163.8578 C.ar    1  UNL1        0.0158
      9 C         143.3858  143.7566  164.7960 C.ar    1  UNL1        0.0896
     10 CL        144.7473  143.3544  165.2804 Cl      1  UNL1       -0.0793
     11 C         142.1773  142.0441  167.6664 C.3     1  UNL1        0.0972
     12 C         143.3892  142.3055  168.5106 C.3     1  UNL1        0.0231
     13 C         143.2429  142.5125  169.9890 C.3     1  UNL1        0.0188
     14 C         141.8847  142.4580  170.6232 C.3     1  UNL1        0.0687
     15 N         140.6727  142.1966  169.7790 N.3     1  UNL1       -0.2961
     16 C         140.8190  141.9896  168.3006 C.3     1  UNL1        0.0890
     17 H         140.0489  142.9938  169.9044 H       1  UNL1        0.1233
     18 C         143.0581  139.8488  161.2124 C.ar    1  UNL1        0.0192
     19 C         141.6940  139.8668  161.8358 C.ar    1  UNL1        0.0017
     20 C         141.5477  140.0737  163.3143 C.ar    1  UNL1        0.0046
     21 C         142.7656  140.2626  164.1693 C.ar    1  UNL1        0.0539
     22 C         144.1298  140.2445  163.5458 C.ar    1  UNL1        0.0046
     23 C         144.2760  140.0376  162.0674 C.ar    1  UNL1        0.0017
     24 C         144.0721  140.4535  157.4234 C.ar    1  UNL1        0.1511
     25 C         143.4971  139.2281  156.7770 C.ar    1  UNL1        0.1331
     26 N         142.7757  138.2097  157.6091 N.ar    1  UNL1       -0.2378
     27 C         142.6294  138.4165  159.0875 C.ar    1  UNL1        0.1180
     28 C         143.2044  139.6418  159.7339 C.ar    1  UNL1        0.1018
     29 N         143.9258  140.6603  158.9018 N.ar    1  UNL1       -0.2275
     30 C         145.9348  142.2480  157.1787 C.3     1  UNL1        0.1137
     31 N         144.7935  141.4719  156.5913 N.pl3   1  UNL1       -0.2885
     32 C         144.3736  141.7143  155.1719 C.3     1  UNL1        0.1137
@<TRIPOS>BOND
     1    30    31    1
     2    31    32    1
     3    31    24    1
     4    24    25   ar
     5    25    26   ar
     6    26    27   ar
     7    27    28   ar
     8    28    18    1
     9    18    19   ar
    10    19    20   ar
    11    20    21   ar
    12    21     1    1
    13     1     2    2
    14     1     3   am
    15     3     4    1
    16     4     5   ar
    17     5     6   ar
    18     6     7   ar
    19     7     8   ar
    20     8     9   ar
    21     9    10    1
    22    11     3    1
    23    11    12    1
    24    12    13    1
    25    13    14    1
    26    14    15    1
    27    15    16    1
    28    21    22   ar
    29    22    23   ar
    30    28    29   ar
    31    29    24   ar
    32    23    18   ar
    33     9     4   ar
    34    16    11    1
    35    15    17    1
