@<TRIPOS>MOLECULE
*****
 37 42 0 0 0
SMALL
GASTEIGER

@<TRIPOS>ATOM
      1 C         139.9489  142.4866  165.7981 C.2     1  UNL1       -0.0155
      2 C         139.4457  143.8742  166.0650 C.2     1  UNL1       -0.0023
      3 C         138.7497  144.6411  164.9800 C.2     1  UNL1        0.0203
      4 C         138.5569  144.0204  163.6281 C.2     1  UNL1        0.1007
      5 N         137.9134  144.5296  162.3724 N.2     1  UNL1       -0.1482
      6 N         138.0189  143.4567  161.3296 N.2     1  UNL1       -0.1467
      7 C         138.7276  142.2844  161.9407 C.2     1  UNL1        0.1199
      8 C         139.0602  142.6328  163.3612 C.2     1  UNL1        0.0225
      9 C         139.7562  141.8659  164.4463 C.3     1  UNL1        0.0559
     10 C         142.0371  140.1856  169.0533 C.ar    1  UNL1        0.0554
     11 C         140.5609  140.0191  168.8457 C.ar    1  UNL1        0.0046
     12 C         139.8648  140.7861  167.7607 C.ar    1  UNL1        0.0021
     13 C         140.6450  141.7195  166.8832 C.ar    1  UNL1        0.0238
     14 C         142.1212  141.8860  167.0908 C.ar    1  UNL1        0.1399
     15 F         142.9014  142.8196  166.2132 F       1  UNL1       -0.2042
     16 C         142.8172  141.1191  168.1757 C.ar    1  UNL1        0.0341
     17 N         143.0588  140.0890  171.4400 N.am    1  UNL1       -0.3253
     18 C         142.7331  139.4186  170.1383 C.2     1  UNL1        0.2428
     19 O         143.1034  137.9813  169.9215 O.2     1  UNL1       -0.2704
     20 H         143.5157  139.5856  172.1521 H       1  UNL1        0.1453
     21 H         142.8158  141.0323  171.5822 H       1  UNL1        0.1453
     22 C         139.0476  140.9908  161.2521 C.ar    1  UNL1        0.1226
     23 C         138.3030  140.5976  160.0108 C.ar    1  UNL1        0.1198
     24 N         138.6230  139.3040  159.3223 N.ar    1  UNL1       -0.2358
     25 C         139.6877  138.4035  159.8750 C.ar    1  UNL1        0.1564
     26 C         140.4323  138.7966  161.1163 C.ar    1  UNL1        0.2447
     27 N         140.1123  140.0902  161.8049 N.ar    1  UNL1       -0.2072
     28 O         141.4971  137.8961  161.6692 O.3     1  UNL1       -0.4615
     29 C         142.6149  138.4709  162.4877 C.3     1  UNL1        0.1830
     30 C         143.7705  139.1458  161.8100 C.3     1  UNL1        0.1127
     31 N         144.8883  139.7206  162.6286 N.3     1  UNL1       -0.2945
     32 C         144.8506  139.6206  164.1248 C.3     1  UNL1        0.0688
     33 C         143.6950  138.9457  164.8024 C.3     1  UNL1        0.0206
     34 C         142.5772  138.3709  163.9839 C.3     1  UNL1        0.0396
     35 C         141.2646  137.6493  163.9025 C.3     1  UNL1        0.0037
     36 C         141.8882  137.9235  165.2389 C.3     1  UNL1        0.0037
     37 H         144.9393  140.7136  162.4011 H       1  UNL1        0.1234
@<TRIPOS>BOND
     1    17    18   am
     2    18    19    2
     3    18    10    1
     4    10    11   ar
     5    11    12   ar
     6    12    13   ar
     7    13     1    1
     8     1     2    2
     9     2     3    1
    10     3     4    2
    11     4     5    1
    12     5     6    2
    13     6     7    1
    14     7    22    1
    15    22    23   ar
    16    23    24   ar
    17    24    25   ar
    18    25    26   ar
    19    26    28    1
    20    29    28    1
    21    29    30    1
    22    30    31    1
    23    31    32    1
    24    32    33    1
    25    33    34    1
    26    34    35    1
    27    35    36    1
    28    26    27   ar
    29     7     8    2
    30     8     9    1
    31    13    14   ar
    32    14    15    1
    33    14    16   ar
    34    16    10   ar
    35     9     1    1
    36     8     4    1
    37    27    22   ar
    38    34    29    1
    39    36    34    1
    40    17    20    1
    41    17    21    1
    42    31    37    1
@<TRIPOS>MOLECULE
*****
 37 42 0 0 0
SMALL
GASTEIGER

@<TRIPOS>ATOM
      1 C         140.3829  142.9336  165.5865 C.2     1  UNL1       -0.0155
      2 C         139.3205  143.9542  165.8686 C.2     1  UNL1       -0.0023
      3 C         138.7588  144.7809  164.7502 C.2     1  UNL1        0.0203
      4 C         139.2594  144.5870  163.3496 C.2     1  UNL1        0.1007
      5 N         138.8976  145.2499  162.0535 N.2     1  UNL1       -0.1482
      6 N         139.7363  144.6390  160.9704 N.2     1  UNL1       -0.1467
      7 C         140.6165  143.5985  161.5970 C.2     1  UNL1        0.1199
      8 C         140.3218  143.5664  163.0674 C.2     1  UNL1        0.0225
      9 C         140.8835  142.7397  164.1859 C.3     1  UNL1        0.0559
     10 C         142.0681  140.4532  168.9419 C.ar    1  UNL1        0.0554
     11 C         142.8131  141.6603  168.4541 C.ar    1  UNL1        0.0046
     12 C         142.2514  142.4871  167.3356 C.ar    1  UNL1        0.0021
     13 C         140.9446  142.1068  166.7050 C.ar    1  UNL1        0.0238
     14 C         140.1996  140.8997  167.1927 C.ar    1  UNL1        0.1399
     15 F         138.8928  140.5194  166.5620 F       1  UNL1       -0.2042
     16 C         140.7613  140.0729  168.3111 C.ar    1  UNL1        0.0341
     17 N         142.7901  140.2235  171.4269 N.am    1  UNL1       -0.3253
     18 C         142.6298  139.6265  170.0603 C.2     1  UNL1        0.2428
     19 O         143.0312  138.2026  169.8120 O.2     1  UNL1       -0.2704
     20 H         143.1588  139.6809  172.1610 H       1  UNL1        0.1453
     21 H         142.5267  141.1580  171.5898 H       1  UNL1        0.1453
     22 C         141.6160  142.7407  160.8792 C.ar    1  UNL1        0.1226
     23 C         142.0300  143.0834  159.4788 C.ar    1  UNL1        0.1198
     24 N         143.0295  142.2256  158.7611 N.ar    1  UNL1       -0.2358
     25 C         143.6150  141.0251  159.4436 C.ar    1  UNL1        0.1564
     26 C         143.2010  140.6824  160.8440 C.ar    1  UNL1        0.2447
     27 N         142.2015  141.5402  161.5618 N.ar    1  UNL1       -0.2072
     28 O         143.7865  139.4818  161.5267 O.3     1  UNL1       -0.4615
     29 C         142.9549  138.6861  162.4886 C.3     1  UNL1        0.1830
     30 C         141.9108  137.7405  161.9732 C.3     1  UNL1        0.1127
     31 N         141.0792  136.9448  162.9351 N.3     1  UNL1       -0.2945
     32 C         141.2916  137.0946  164.4124 C.3     1  UNL1        0.0688
     33 C         142.3358  138.0402  164.9278 C.3     1  UNL1        0.0206
     34 C         143.1674  138.8359  163.9659 C.3     1  UNL1        0.0396
     35 C         144.2505  139.8413  163.7081 C.3     1  UNL1        0.0037
     36 C         143.8930  139.4684  165.1163 C.3     1  UNL1        0.0037
     37 H         141.2332  135.9611  162.7137 H       1  UNL1        0.1234
@<TRIPOS>BOND
     1    17    18   am
     2    18    19    2
     3    18    10    1
     4    10    11   ar
     5    11    12   ar
     6    12    13   ar
     7    13     1    1
     8     1     2    2
     9     2     3    1
    10     3     4    2
    11     4     5    1
    12     5     6    2
    13     6     7    1
    14     7    22    1
    15    22    23   ar
    16    23    24   ar
    17    24    25   ar
    18    25    26   ar
    19    26    28    1
    20    29    28    1
    21    29    30    1
    22    30    31    1
    23    31    32    1
    24    32    33    1
    25    33    34    1
    26    34    35    1
    27    35    36    1
    28    26    27   ar
    29     7     8    2
    30     8     9    1
    31    13    14   ar
    32    14    15    1
    33    14    16   ar
    34    16    10   ar
    35     9     1    1
    36     8     4    1
    37    27    22   ar
    38    34    29    1
    39    36    34    1
    40    17    20    1
    41    17    21    1
    42    31    37    1
@<TRIPOS>MOLECULE
*****
 37 42 0 0 0
SMALL
GASTEIGER

@<TRIPOS>ATOM
      1 C         139.7723  139.2136  165.2897 C.2     1  UNL1       -0.0155
      2 C         139.2229  137.8491  164.9959 C.2     1  UNL1       -0.0023
      3 C         138.7541  137.5115  163.6116 C.2     1  UNL1        0.0203
      4 C         138.8346  138.5384  162.5212 C.2     1  UNL1        0.1007
      5 N         138.4516  138.4951  161.0715 N.2     1  UNL1       -0.1482
      6 N         138.7643  139.8329  160.4694 N.2     1  UNL1       -0.1467
      7 C         139.3405  140.7029  161.5470 C.2     1  UNL1        0.1199
      8 C         139.3840  139.9028  162.8150 C.2     1  UNL1        0.0225
      9 C         139.8528  140.2405  164.1993 C.3     1  UNL1        0.0559
     10 C         141.1788  140.2266  169.4425 C.ar    1  UNL1        0.0554
     11 C         139.7138  140.2461  169.1213 C.ar    1  UNL1        0.0046
     12 C         139.2449  139.9084  167.7370 C.ar    1  UNL1        0.0021
     13 C         140.2411  139.5513  166.6740 C.ar    1  UNL1        0.0238
     14 C         141.7062  139.5318  166.9952 C.ar    1  UNL1        0.1399
     15 F         142.7024  139.1746  165.9322 F       1  UNL1       -0.2042
     16 C         142.1750  139.8694  168.3794 C.ar    1  UNL1        0.0341
     17 N         143.0351  140.1935  171.2599 N.am    1  UNL1       -0.3253
     18 C         141.6477  140.5643  170.8267 C.2     1  UNL1        0.2428
     19 O         140.7292  141.2727  171.7778 O.2     1  UNL1       -0.2704
     20 H         143.3428  140.4151  172.1684 H       1  UNL1        0.1453
     21 H         143.6379  139.7285  170.6357 H       1  UNL1        0.1453
     22 C         139.7937  142.1236  161.3849 C.ar    1  UNL1        0.1226
     23 C         138.8026  143.1906  161.0255 C.ar    1  UNL1        0.1198
     24 N         139.2558  144.6113  160.8634 N.ar    1  UNL1       -0.2358
     25 C         140.7000  144.9650  161.0608 C.ar    1  UNL1        0.1564
     26 C         141.6911  143.8980  161.4202 C.ar    1  UNL1        0.2447
     27 N         141.2379  142.4773  161.5822 N.ar    1  UNL1       -0.2072
     28 O         143.1355  144.2517  161.6175 O.3     1  UNL1       -0.4615
     29 C         144.0381  143.3238  162.3754 C.3     1  UNL1        0.1830
     30 C         144.6643  142.1519  161.6792 C.3     1  UNL1        0.1127
     31 N         145.5668  141.2240  162.4371 N.3     1  UNL1       -0.2945
     32 C         145.8433  141.4680  163.8912 C.3     1  UNL1        0.0688
     33 C         145.2170  142.6399  164.5873 C.3     1  UNL1        0.0206
     34 C         144.3145  143.5677  163.8294 C.3     1  UNL1        0.0396
     35 C         143.4318  144.7801  163.7937 C.3     1  UNL1        0.0037
     36 C         144.1125  144.3852  165.0707 C.3     1  UNL1        0.0037
     37 H         146.4683  141.2353  161.9601 H       1  UNL1        0.1234
@<TRIPOS>BOND
     1    17    18   am
     2    18    19    2
     3    18    10    1
     4    10    11   ar
     5    11    12   ar
     6    12    13   ar
     7    13     1    1
     8     1     2    2
     9     2     3    1
    10     3     4    2
    11     4     5    1
    12     5     6    2
    13     6     7    1
    14     7    22    1
    15    22    23   ar
    16    23    24   ar
    17    24    25   ar
    18    25    26   ar
    19    26    28    1
    20    29    28    1
    21    29    30    1
    22    30    31    1
    23    31    32    1
    24    32    33    1
    25    33    34    1
    26    34    35    1
    27    35    36    1
    28    26    27   ar
    29     7     8    2
    30     8     9    1
    31    13    14   ar
    32    14    15    1
    33    14    16   ar
    34    16    10   ar
    35     9     1    1
    36     8     4    1
    37    27    22   ar
    38    34    29    1
    39    36    34    1
    40    17    20    1
    41    17    21    1
    42    31    37    1
@<TRIPOS>MOLECULE
*****
 37 42 0 0 0
SMALL
GASTEIGER

@<TRIPOS>ATOM
      1 C         142.9276  142.7468  165.8451 C.2     1  UNL1       -0.0155
      2 C         144.3309  143.2750  165.8062 C.2     1  UNL1       -0.0023
      3 C         144.9295  143.7182  164.5043 C.2     1  UNL1        0.0203
      4 C         144.1248  143.6333  163.2412 C.2     1  UNL1        0.1007
      5 N         144.4454  143.9934  161.8208 N.2     1  UNL1       -0.1482
      6 N         143.2401  143.6876  160.9818 N.2     1  UNL1       -0.1467
      7 C         142.1747  143.1387  161.8838 C.2     1  UNL1        0.1199
      8 C         142.7215  143.1051  163.2802 C.2     1  UNL1        0.0225
      9 C         142.1228  142.6618  164.5821 C.3     1  UNL1        0.0559
     10 C         141.1315  141.4168  169.7510 C.ar    1  UNL1        0.0554
     11 C         142.5843  141.7831  169.6797 C.ar    1  UNL1        0.0046
     12 C         143.1830  142.2264  168.3777 C.ar    1  UNL1        0.0021
     13 C         142.3289  142.3034  167.1471 C.ar    1  UNL1        0.0238
     14 C         140.8760  141.9372  167.2184 C.ar    1  UNL1        0.1399
     15 F         140.0219  142.0142  165.9877 F       1  UNL1       -0.2042
     16 C         140.2773  141.4939  168.5203 C.ar    1  UNL1        0.0341
     17 N         139.9778  139.5867  171.1895 N.am    1  UNL1       -0.3253
     18 C         140.5328  140.9735  171.0529 C.2     1  UNL1        0.2428
     19 O         140.4891  141.9170  172.2182 O.2     1  UNL1       -0.2704
     20 H         139.5848  139.2958  172.0440 H       1  UNL1        0.1453
     21 H         140.0065  138.9675  170.4247 H       1  UNL1        0.1453
     22 C         140.8032  142.7003  161.4633 C.ar    1  UNL1        0.1226
     23 C         140.0018  143.5467  160.5191 C.ar    1  UNL1        0.1198
     24 N         138.6304  143.1083  160.0986 N.ar    1  UNL1       -0.2358
     25 C         138.0602  141.8234  160.6221 C.ar    1  UNL1        0.1564
     26 C         138.8616  140.9770  161.5662 C.ar    1  UNL1        0.2447
     27 N         140.2331  141.4154  161.9868 N.ar    1  UNL1       -0.2072
     28 O         138.2915  139.6921  162.0898 O.3     1  UNL1       -0.4615
     29 C         139.1646  138.7395  162.8516 C.3     1  UNL1        0.1830
     30 C         140.1416  137.8683  162.1190 C.3     1  UNL1        0.1127
     31 N         141.0147  136.9158  162.8808 N.3     1  UNL1       -0.2945
     32 C         140.9109  136.8343  164.3750 C.3     1  UNL1        0.0688
     33 C         139.9338  137.7055  165.1074 C.3     1  UNL1        0.0206
     34 C         139.0607  138.6581  164.3457 C.3     1  UNL1        0.0396
     35 C         137.9925  139.7111  164.3288 C.3     1  UNL1        0.0037
     36 C         138.4367  139.1140  165.6312 C.3     1  UNL1        0.0037
     37 H         141.9801  137.1652  162.6659 H       1  UNL1        0.1234
@<TRIPOS>BOND
     1    17    18   am
     2    18    19    2
     3    18    10    1
     4    10    11   ar
     5    11    12   ar
     6    12    13   ar
     7    13     1    1
     8     1     2    2
     9     2     3    1
    10     3     4    2
    11     4     5    1
    12     5     6    2
    13     6     7    1
    14     7    22    1
    15    22    23   ar
    16    23    24   ar
    17    24    25   ar
    18    25    26   ar
    19    26    28    1
    20    29    28    1
    21    29    30    1
    22    30    31    1
    23    31    32    1
    24    32    33    1
    25    33    34    1
    26    34    35    1
    27    35    36    1
    28    26    27   ar
    29     7     8    2
    30     8     9    1
    31    13    14   ar
    32    14    15    1
    33    14    16   ar
    34    16    10   ar
    35     9     1    1
    36     8     4    1
    37    27    22   ar
    38    34    29    1
    39    36    34    1
    40    17    20    1
    41    17    21    1
    42    31    37    1
@<TRIPOS>MOLECULE
*****
 37 42 0 0 0
SMALL
GASTEIGER

@<TRIPOS>ATOM
      1 C         143.4322  141.7097  164.3709 C.2     1  UNL1       -0.0155
      2 C         144.4611  142.7991  164.3044 C.2     1  UNL1       -0.0023
      3 C         144.8324  143.4003  162.9813 C.2     1  UNL1        0.0203
      4 C         144.1749  142.9120  161.7246 C.2     1  UNL1        0.1007
      5 N         144.3357  143.3107  160.2875 N.2     1  UNL1       -0.1482
      6 N         143.4062  142.4676  159.4658 N.2     1  UNL1       -0.1467
      7 C         142.6710  141.5478  160.3951 C.2     1  UNL1        0.1199
      8 C         143.1460  141.8225  161.7911 C.2     1  UNL1        0.0225
      9 C         142.7747  141.2214  163.1142 C.3     1  UNL1        0.0559
     10 C         142.3181  139.9060  168.3403 C.ar    1  UNL1        0.0554
     11 C         142.0830  141.3657  168.0873 C.ar    1  UNL1        0.0046
     12 C         142.4544  141.9669  166.7641 C.ar    1  UNL1        0.0021
     13 C         143.0608  141.1085  165.6940 C.ar    1  UNL1        0.0238
     14 C         143.2959  139.6488  165.9470 C.ar    1  UNL1        0.1399
     15 F         143.9024  138.7903  164.8768 F       1  UNL1       -0.2042
     16 C         142.9246  139.0475  167.2701 C.ar    1  UNL1        0.0341
     17 N         142.9471  138.4831  170.4209 N.am    1  UNL1       -0.3253
     18 C         141.9467  139.3048  169.6633 C.2     1  UNL1        0.2428
     19 O         140.5750  139.5253  170.2288 O.2     1  UNL1       -0.2704
     20 H         142.7034  138.0885  171.2893 H       1  UNL1        0.1453
     21 H         143.8474  138.3384  170.0498 H       1  UNL1        0.1453
     22 C         141.6414  140.5318  159.9980 C.ar    1  UNL1        0.1226
     23 C         141.4083  140.2274  158.5478 C.ar    1  UNL1        0.1198
     24 N         140.3787  139.2114  158.1508 N.ar    1  UNL1       -0.2358
     25 C         139.5822  138.4997  159.2039 C.ar    1  UNL1        0.1564
     26 C         139.8153  138.8041  160.6541 C.ar    1  UNL1        0.2447
     27 N         140.8449  139.8201  161.0511 N.ar    1  UNL1       -0.2072
     28 O         139.0188  138.0924  161.7073 O.3     1  UNL1       -0.4615
     29 C         138.8867  138.6875  163.0778 C.3     1  UNL1        0.1830
     30 C         137.8975  139.7876  163.3256 C.3     1  UNL1        0.1127
     31 N         137.7654  140.3827  164.6961 N.3     1  UNL1       -0.2945
     32 C         138.6226  139.8779  165.8189 C.3     1  UNL1        0.0688
     33 C         139.6118  138.7779  165.5710 C.3     1  UNL1        0.0206
     34 C         139.7438  138.1827  164.2005 C.3     1  UNL1        0.0396
     35 C         140.3912  137.2040  163.2661 C.3     1  UNL1        0.0037
     36 C         140.8098  137.2561  164.7056 C.3     1  UNL1        0.0037
     37 H         136.7957  140.2491  164.9830 H       1  UNL1        0.1234
@<TRIPOS>BOND
     1    17    18   am
     2    18    19    2
     3    18    10    1
     4    10    11   ar
     5    11    12   ar
     6    12    13   ar
     7    13     1    1
     8     1     2    2
     9     2     3    1
    10     3     4    2
    11     4     5    1
    12     5     6    2
    13     6     7    1
    14     7    22    1
    15    22    23   ar
    16    23    24   ar
    17    24    25   ar
    18    25    26   ar
    19    26    28    1
    20    29    28    1
    21    29    30    1
    22    30    31    1
    23    31    32    1
    24    32    33    1
    25    33    34    1
    26    34    35    1
    27    35    36    1
    28    26    27   ar
    29     7     8    2
    30     8     9    1
    31    13    14   ar
    32    14    15    1
    33    14    16   ar
    34    16    10   ar
    35     9     1    1
    36     8     4    1
    37    27    22   ar
    38    34    29    1
    39    36    34    1
    40    17    20    1
    41    17    21    1
    42    31    37    1
@<TRIPOS>MOLECULE
*****
 37 42 0 0 0
SMALL
GASTEIGER

@<TRIPOS>ATOM
      1 C         142.3402  139.9919  164.7703 C.2     1  UNL1       -0.0155
      2 C         143.7606  139.5151  164.8415 C.2     1  UNL1       -0.0023
      3 C         144.5308  139.2618  163.5796 C.2     1  UNL1        0.0203
      4 C         143.8806  139.4854  162.2464 C.2     1  UNL1        0.1007
      5 N         144.3856  139.3218  160.8434 N.2     1  UNL1       -0.1482
      6 N         143.2772  139.6975  159.9052 N.2     1  UNL1       -0.1467
      7 C         142.0873  140.0933  160.7283 C.2     1  UNL1        0.1199
      8 C         142.4603  139.9623  162.1752 C.2     1  UNL1        0.0225
      9 C         141.6900  140.2155  163.4372 C.3     1  UNL1        0.0559
     10 C         140.0294  140.7517  168.5563 C.ar    1  UNL1        0.0554
     11 C         139.5111  139.7726  167.5450 C.ar    1  UNL1        0.0046
     12 C         140.2814  139.5193  166.2830 C.ar    1  UNL1        0.0021
     13 C         141.5699  140.2451  166.0323 C.ar    1  UNL1        0.0238
     14 C         142.0882  141.2242  167.0436 C.ar    1  UNL1        0.1399
     15 F         143.3768  141.9501  166.7929 F       1  UNL1       -0.2042
     16 C         141.3179  141.4775  168.3056 C.ar    1  UNL1        0.0341
     17 N         139.4795  142.2722  170.5898 N.am    1  UNL1       -0.3253
     18 C         139.2591  141.0049  169.8182 C.2     1  UNL1        0.2428
     19 O         138.2685  139.9909  170.3086 O.2     1  UNL1       -0.2704
     20 H         138.9740  142.4385  171.4181 H       1  UNL1        0.1453
     21 H         140.1297  142.9378  170.2679 H       1  UNL1        0.1453
     22 C         140.7579  140.5416  160.1976 C.ar    1  UNL1        0.1226
     23 C         140.2706  140.0367  158.8718 C.ar    1  UNL1        0.1198
     24 N         138.9412  140.4849  158.3411 N.ar    1  UNL1       -0.2358
     25 C         138.0989  141.4380  159.1361 C.ar    1  UNL1        0.1564
     26 C         138.5861  141.9428  160.4619 C.ar    1  UNL1        0.2447
     27 N         139.9156  141.4946  160.9926 N.ar    1  UNL1       -0.2072
     28 O         137.7438  142.8960  161.2571 O.3     1  UNL1       -0.4615
     29 C         138.2902  143.5141  162.5098 C.3     1  UNL1        0.1830
     30 C         138.9961  144.8362  162.4476 C.3     1  UNL1        0.1127
     31 N         139.5425  145.4543  163.7003 N.3     1  UNL1       -0.2945
     32 C         139.3830  144.7504  165.0154 C.3     1  UNL1        0.0688
     33 C         138.6771  143.4283  165.0775 C.3     1  UNL1        0.0206
     34 C         138.1307  142.8102  163.8248 C.3     1  UNL1        0.0396
     35 C         137.4076  141.6900  163.1373 C.3     1  UNL1        0.0037
     36 C         137.6310  141.6405  164.6198 C.3     1  UNL1        0.0037
     37 H         139.0953  146.3658  163.7982 H       1  UNL1        0.1234
@<TRIPOS>BOND
     1    17    18   am
     2    18    19    2
     3    18    10    1
     4    10    11   ar
     5    11    12   ar
     6    12    13   ar
     7    13     1    1
     8     1     2    2
     9     2     3    1
    10     3     4    2
    11     4     5    1
    12     5     6    2
    13     6     7    1
    14     7    22    1
    15    22    23   ar
    16    23    24   ar
    17    24    25   ar
    18    25    26   ar
    19    26    28    1
    20    29    28    1
    21    29    30    1
    22    30    31    1
    23    31    32    1
    24    32    33    1
    25    33    34    1
    26    34    35    1
    27    35    36    1
    28    26    27   ar
    29     7     8    2
    30     8     9    1
    31    13    14   ar
    32    14    15    1
    33    14    16   ar
    34    16    10   ar
    35     9     1    1
    36     8     4    1
    37    27    22   ar
    38    34    29    1
    39    36    34    1
    40    17    20    1
    41    17    21    1
    42    31    37    1
@<TRIPOS>MOLECULE
*****
 37 42 0 0 0
SMALL
GASTEIGER

@<TRIPOS>ATOM
      1 C         140.9102  143.1713  164.2422 C.2     1  UNL1       -0.0155
      2 C         141.0234  144.6667  164.2715 C.2     1  UNL1       -0.0023
      3 C         140.8511  145.4567  163.0081 C.2     1  UNL1        0.0203
      4 C         140.5655  144.7513  161.7155 C.2     1  UNL1        0.1007
      5 N         140.3490  145.2599  160.3210 N.2     1  UNL1       -0.1482
      6 N         140.1020  144.0788  159.4300 N.2     1  UNL1       -0.1467
      7 C         140.1658  142.8403  160.2738 C.2     1  UNL1        0.1199
      8 C         140.4523  143.2559  161.6863 C.2     1  UNL1        0.0225
      9 C         140.6246  142.4659  162.9496 C.3     1  UNL1        0.0559
     10 C         141.4272  140.8012  168.0324 C.ar    1  UNL1        0.0554
     11 C         142.5919  141.5437  167.4474 C.ar    1  UNL1        0.0046
     12 C         142.4195  142.3338  166.1840 C.ar    1  UNL1        0.0021
     13 C         141.0826  142.3813  165.5057 C.ar    1  UNL1        0.0238
     14 C         139.9179  141.6387  166.0906 C.ar    1  UNL1        0.1399
     15 F         138.5809  141.6863  165.4122 F       1  UNL1       -0.2042
     16 C         140.0902  140.8487  167.3540 C.ar    1  UNL1        0.0341
     17 N         142.9755  139.6610  169.7796 N.am    1  UNL1       -0.3253
     18 C         141.5995  140.0111  169.2958 C.2     1  UNL1        0.2428
     19 O         140.3959  139.5712  170.0753 O.2     1  UNL1       -0.2704
     20 H         143.0886  139.1425  170.6088 H       1  UNL1        0.1453
     21 H         143.7655  139.9498  169.2680 H       1  UNL1        0.1453
     22 C         139.9764  141.4331  159.7900 C.ar    1  UNL1        0.1226
     23 C         139.6118  141.1750  158.3580 C.ar    1  UNL1        0.1198
     24 N         139.4224  139.7678  157.8743 N.ar    1  UNL1       -0.2358
     25 C         139.5976  138.6188  158.8223 C.ar    1  UNL1        0.1564
     26 C         139.9622  138.8769  160.2543 C.ar    1  UNL1        0.2447
     27 N         140.1516  140.2841  160.7380 N.ar    1  UNL1       -0.2072
     28 O         140.1375  137.7278  161.2025 O.3     1  UNL1       -0.4615
     29 C         140.9005  137.9190  162.4797 C.3     1  UNL1        0.1830
     30 C         142.3858  138.1254  162.4422 C.3     1  UNL1        0.1127
     31 N         143.1488  138.3166  163.7194 N.3     1  UNL1       -0.2945
     32 C         142.4266  138.3014  165.0341 C.3     1  UNL1        0.0688
     33 C         140.9413  138.0950  165.0715 C.3     1  UNL1        0.0206
     34 C         140.1783  137.9038  163.7943 C.3     1  UNL1        0.0396
     35 C         138.8802  137.6743  163.0784 C.3     1  UNL1        0.0037
     36 C         138.9038  137.7759  164.5748 C.3     1  UNL1        0.0037
     37 H         143.6162  139.2206  163.6507 H       1  UNL1        0.1234
@<TRIPOS>BOND
     1    17    18   am
     2    18    19    2
     3    18    10    1
     4    10    11   ar
     5    11    12   ar
     6    12    13   ar
     7    13     1    1
     8     1     2    2
     9     2     3    1
    10     3     4    2
    11     4     5    1
    12     5     6    2
    13     6     7    1
    14     7    22    1
    15    22    23   ar
    16    23    24   ar
    17    24    25   ar
    18    25    26   ar
    19    26    28    1
    20    29    28    1
    21    29    30    1
    22    30    31    1
    23    31    32    1
    24    32    33    1
    25    33    34    1
    26    34    35    1
    27    35    36    1
    28    26    27   ar
    29     7     8    2
    30     8     9    1
    31    13    14   ar
    32    14    15    1
    33    14    16   ar
    34    16    10   ar
    35     9     1    1
    36     8     4    1
    37    27    22   ar
    38    34    29    1
    39    36    34    1
    40    17    20    1
    41    17    21    1
    42    31    37    1
@<TRIPOS>MOLECULE
*****
 37 42 0 0 0
SMALL
GASTEIGER

@<TRIPOS>ATOM
      1 C         139.8503  139.3709  165.2359 C.2     1  UNL1       -0.0155
      2 C         139.3041  138.0179  164.8879 C.2     1  UNL1       -0.0023
      3 C         138.6091  137.8045  163.5759 C.2     1  UNL1        0.0203
      4 C         138.4602  138.9440  162.6119 C.2     1  UNL1        0.1007
      5 N         137.8280  139.0343  161.2546 N.2     1  UNL1       -0.1482
      6 N         137.9835  140.4432  160.7638 N.2     1  UNL1       -0.1467
      7 C         138.7117  141.2235  161.8177 C.2     1  UNL1        0.1199
      8 C         139.0064  140.2970  162.9599 C.2     1  UNL1        0.0225
      9 C         139.7014  140.5104  164.2719 C.3     1  UNL1        0.0559
     10 C         141.9355  140.0113  169.1719 C.ar    1  UNL1        0.0554
     11 C         140.4733  140.3185  169.0391 C.ar    1  UNL1        0.0046
     12 C         139.7783  140.1050  167.7270 C.ar    1  UNL1        0.0021
     13 C         140.5454  139.5844  166.5479 C.ar    1  UNL1        0.0238
     14 C         142.0076  139.2772  166.6807 C.ar    1  UNL1        0.1399
     15 F         142.7747  138.7566  165.5014 F       1  UNL1       -0.2042
     16 C         142.7027  139.4907  167.9926 C.ar    1  UNL1        0.0341
     17 N         142.2477  141.3838  171.3555 N.am    1  UNL1       -0.3253
     18 C         142.6306  140.2248  170.4838 C.2     1  UNL1        0.2428
     19 O         143.7087  139.2793  170.9240 O.2     1  UNL1       -0.2704
     20 H         142.7039  141.5239  172.2166 H       1  UNL1        0.1453
     21 H         141.5401  142.0044  171.0666 H       1  UNL1        0.1453
     22 C         139.0806  142.6755  161.7426 C.ar    1  UNL1        0.1226
     23 C         138.2977  143.6896  162.5228 C.ar    1  UNL1        0.1198
     24 N         138.6666  145.1415  162.4477 N.ar    1  UNL1       -0.2358
     25 C         139.8184  145.5796  161.5924 C.ar    1  UNL1        0.1564
     26 C         140.6012  144.5655  160.8122 C.ar    1  UNL1        0.2447
     27 N         140.2324  143.1135  160.8873 N.ar    1  UNL1       -0.2072
     28 O         141.7531  145.0035  159.9568 O.3     1  UNL1       -0.4615
     29 C         141.6271  144.9847  158.4622 C.3     1  UNL1        0.1830
     30 C         140.6522  145.8983  157.7803 C.3     1  UNL1        0.1127
     31 N         140.5262  145.8795  156.2857 N.3     1  UNL1       -0.2945
     32 C         141.3750  144.9472  155.4730 C.3     1  UNL1        0.0688
     33 C         142.3498  144.0336  156.1551 C.3     1  UNL1        0.0206
     34 C         142.4758  144.0524  157.6496 C.3     1  UNL1        0.0396
     35 C         143.1115  143.5358  158.9063 C.3     1  UNL1        0.0037
     36 C         143.5287  142.9867  157.5742 C.3     1  UNL1        0.0037
     37 H         140.7325  146.8241  155.9610 H       1  UNL1        0.1234
@<TRIPOS>BOND
     1    17    18   am
     2    18    19    2
     3    18    10    1
     4    10    11   ar
     5    11    12   ar
     6    12    13   ar
     7    13     1    1
     8     1     2    2
     9     2     3    1
    10     3     4    2
    11     4     5    1
    12     5     6    2
    13     6     7    1
    14     7    22    1
    15    22    23   ar
    16    23    24   ar
    17    24    25   ar
    18    25    26   ar
    19    26    28    1
    20    29    28    1
    21    29    30    1
    22    30    31    1
    23    31    32    1
    24    32    33    1
    25    33    34    1
    26    34    35    1
    27    35    36    1
    28    26    27   ar
    29     7     8    2
    30     8     9    1
    31    13    14   ar
    32    14    15    1
    33    14    16   ar
    34    16    10   ar
    35     9     1    1
    36     8     4    1
    37    27    22   ar
    38    34    29    1
    39    36    34    1
    40    17    20    1
    41    17    21    1
    42    31    37    1
@<TRIPOS>MOLECULE
*****
 37 42 0 0 0
SMALL
GASTEIGER

@<TRIPOS>ATOM
      1 C         143.0334  141.6795  164.4709 C.2     1  UNL1       -0.0155
      2 C         144.4973  142.0022  164.5237 C.2     1  UNL1       -0.0023
      3 C         145.2404  142.3238  163.2610 C.2     1  UNL1        0.0203
      4 C         144.5195  142.3227  161.9456 C.2     1  UNL1        0.1007
      5 N         144.9842  142.5985  160.5462 N.2     1  UNL1       -0.1482
      6 N         143.8074  142.4461  159.6286 N.2     1  UNL1       -0.1467
      7 C         142.6155  142.0763  160.4609 C.2     1  UNL1        0.1199
      8 C         143.0556  142.0000  161.8928 C.2     1  UNL1        0.0225
      9 C         142.3126  141.6784  163.1555 C.3     1  UNL1        0.0559
     10 C         140.8040  140.7147  168.2590 C.ar    1  UNL1        0.0554
     11 C         140.5496  142.0110  167.5485 C.ar    1  UNL1        0.0046
     12 C         141.2927  142.3326  166.2858 C.ar    1  UNL1        0.0021
     13 C         142.2903  141.3579  165.7336 C.ar    1  UNL1        0.0238
     14 C         142.5447  140.0616  166.4442 C.ar    1  UNL1        0.1399
     15 F         143.5423  139.0869  165.8920 F       1  UNL1       -0.2042
     16 C         141.8016  139.7400  167.7068 C.ar    1  UNL1        0.0341
     17 N         138.6778  139.8169  169.4518 N.am    1  UNL1       -0.3253
     18 C         140.0610  140.3930  169.5217 C.2     1  UNL1        0.2428
     19 O         140.7010  140.6475  170.8542 O.2     1  UNL1       -0.2704
     20 H         138.1901  139.6058  170.2805 H       1  UNL1        0.1453
     21 H         138.2577  139.6499  168.5772 H       1  UNL1        0.1453
     22 C         141.2272  141.8266  159.9507 C.ar    1  UNL1        0.1226
     23 C         140.9261  141.9806  158.4894 C.ar    1  UNL1        0.1198
     24 N         139.5378  141.7309  157.9792 N.ar    1  UNL1       -0.2358
     25 C         138.4506  141.3271  158.9304 C.ar    1  UNL1        0.1564
     26 C         138.7517  141.1730  160.3918 C.ar    1  UNL1        0.2447
     27 N         140.1400  141.4228  160.9019 N.ar    1  UNL1       -0.2072
     28 O         137.6644  140.7692  161.3431 O.3     1  UNL1       -0.4615
     29 C         138.0137  140.1207  162.6498 C.3     1  UNL1        0.1830
     30 C         138.3997  138.6717  162.6883 C.3     1  UNL1        0.1127
     31 N         138.7490  138.0232  163.9950 N.3     1  UNL1       -0.2945
     32 C         138.7124  138.8237  165.2631 C.3     1  UNL1        0.0688
     33 C         138.3265  140.2726  165.2245 C.3     1  UNL1        0.0206
     34 C         137.9771  140.9211  163.9178 C.3     1  UNL1        0.0396
     35 C         137.5525  142.1322  163.1410 C.3     1  UNL1        0.0037
     36 C         137.7331  142.2198  164.6276 C.3     1  UNL1        0.0037
     37 H         139.6991  137.6641  163.9008 H       1  UNL1        0.1234
@<TRIPOS>BOND
     1    17    18   am
     2    18    19    2
     3    18    10    1
     4    10    11   ar
     5    11    12   ar
     6    12    13   ar
     7    13     1    1
     8     1     2    2
     9     2     3    1
    10     3     4    2
    11     4     5    1
    12     5     6    2
    13     6     7    1
    14     7    22    1
    15    22    23   ar
    16    23    24   ar
    17    24    25   ar
    18    25    26   ar
    19    26    28    1
    20    29    28    1
    21    29    30    1
    22    30    31    1
    23    31    32    1
    24    32    33    1
    25    33    34    1
    26    34    35    1
    27    35    36    1
    28    26    27   ar
    29     7     8    2
    30     8     9    1
    31    13    14   ar
    32    14    15    1
    33    14    16   ar
    34    16    10   ar
    35     9     1    1
    36     8     4    1
    37    27    22   ar
    38    34    29    1
    39    36    34    1
    40    17    20    1
    41    17    21    1
    42    31    37    1
