@<TRIPOS>MOLECULE
*****
 34 36 0 0 0
SMALL
GASTEIGER

@<TRIPOS>ATOM
      1 C         138.8234  138.6770  162.5851 C.3     1  UNL1        0.1017
      2 C         139.1912  137.5380  163.4892 C.3     1  UNL1        0.0394
      3 C         138.9978  137.6643  164.9713 C.3     1  UNL1        0.0739
      4 N         138.4364  138.9295  165.5493 N.3     1  UNL1       -0.2705
      5 C         138.0686  140.0685  164.6452 C.3     1  UNL1        0.1037
      6 C         138.2621  139.9422  163.1631 C.3     1  UNL1        0.1490
      7 C         140.3695  138.7895  160.5001 C.2     1  UNL1        0.2488
      8 O         141.5286  139.1546  161.3794 O.2     1  UNL1       -0.2700
      9 N         139.0169  138.5507  161.1030 N.am    1  UNL1       -0.2999
     10 H         138.2561  138.3112  160.5259 H       1  UNL1        0.1498
     11 C         139.5046  139.1604  158.0785 C.ar    1  UNL1        0.1443
     12 C         139.6980  139.0342  156.5964 C.ar    1  UNL1        0.0520
     13 C         140.9498  138.4108  156.0538 C.ar    1  UNL1        0.0553
     14 N         141.1433  138.2845  154.5717 N.pl3   1  UNL1       -0.3563
     15 C         142.0082  137.9137  156.9934 C.ar    1  UNL1        0.0709
     16 CL        143.2600  137.2903  156.4508 Cl      1  UNL1       -0.0810
     17 C         141.8147  138.0399  158.4754 C.ar    1  UNL1        0.0202
     18 C         140.5629  138.6633  159.0180 C.ar    1  UNL1        0.0882
     19 H         140.4486  138.6108  153.9550 H       1  UNL1        0.1424
     20 H         141.9649  137.8754  154.2156 H       1  UNL1        0.1424
     21 C         138.1396  141.2763  158.7187 C.3     1  UNL1        0.2525
     22 O         138.2528  139.7838  158.6210 O.3     1  UNL1       -0.4712
     23 O         137.8942  141.0812  162.2590 O.3     1  UNL1       -0.3505
     24 C         137.6575  142.4472  162.8318 C.3     1  UNL1        0.1741
     25 C         138.2430  139.0557  167.0314 C.3     1  UNL1        0.0722
     26 C         139.2579  139.7851  167.8608 C.3     1  UNL1        0.0194
     27 C         140.6027  140.1131  167.2832 C.3     1  UNL1        0.0229
     28 C         141.6176  140.8425  168.1126 C.3     1  UNL1        0.0934
     29 N         141.2876  141.2440  169.5196 N.am    1  UNL1       -0.2795
     30 C         142.3025  141.9734  170.3491 C.2     1  UNL1        0.2261
     31 C         143.6474  142.3013  169.7714 C.3     1  UNL1        0.0948
     32 O         141.9724  142.3749  171.7562 O.2     1  UNL1       -0.2749
     33 C         139.9427  140.9161  170.0973 C.3     1  UNL1        0.0934
     34 C         138.9278  140.1866  169.2679 C.3     1  UNL1        0.0229
@<TRIPOS>BOND
     1    21    22    1
     2    22    11    1
     3    11    12   ar
     4    12    13   ar
     5    13    14    1
     6    13    15   ar
     7    15    16    1
     8    15    17   ar
     9    17    18   ar
    10    18     7    1
    11     7     8    2
    12     7     9   am
    13     1     9    1
    14     1     2    1
    15     2     3    1
    16     3     4    1
    17     4    25    1
    18    25    26    1
    19    26    27    1
    20    27    28    1
    21    28    29    1
    22    29    30   am
    23    30    31    1
    24    30    32    2
    25    29    33    1
    26    33    34    1
    27     4     5    1
    28     5     6    1
    29     6    23    1
    30    23    24    1
    31    18    11   ar
    32     6     1    1
    33    34    26    1
    34    14    19    1
    35    14    20    1
    36     9    10    1
@<TRIPOS>MOLECULE
*****
 34 36 0 0 0
SMALL
GASTEIGER

@<TRIPOS>ATOM
      1 C         140.6368  138.9587  160.6561 C.3     1  UNL1        0.1017
      2 C         139.5491  138.6217  159.6797 C.3     1  UNL1        0.0394
      3 C         139.8981  138.2207  158.2770 C.3     1  UNL1        0.0739
      4 N         141.3348  138.1568  157.8508 N.3     1  UNL1       -0.2705
      5 C         142.4225  138.4939  158.8271 C.3     1  UNL1        0.1037
      6 C         142.0736  138.8948  160.2298 C.3     1  UNL1        0.1490
      7 C         140.3345  138.3450  163.1624 C.2     1  UNL1        0.2488
      8 O         140.7302  136.9294  162.8636 O.2     1  UNL1       -0.2700
      9 N         140.2878  139.3597  162.0587 N.am    1  UNL1       -0.2999
     10 H         140.0281  140.2888  162.2549 H       1  UNL1        0.1498
     11 C         140.8633  139.7068  165.3109 C.ar    1  UNL1        0.1443
     12 C         140.5143  140.1077  166.7135 C.ar    1  UNL1        0.0520
     13 C         139.2874  139.5479  167.3703 C.ar    1  UNL1        0.0553
     14 N         138.9384  139.9489  168.7730 N.pl3   1  UNL1       -0.3563
     15 C         138.4096  138.5871  166.6245 C.ar    1  UNL1        0.0709
     16 CL        137.1827  138.0273  167.2813 Cl      1  UNL1       -0.0810
     17 C         138.7586  138.1862  165.2219 C.ar    1  UNL1        0.0202
     18 C         139.9855  138.7460  164.5651 C.ar    1  UNL1        0.0882
     19 H         139.5145  140.5795  169.2625 H       1  UNL1        0.1424
     20 H         138.1331  139.5815  169.2041 H       1  UNL1        0.1424
     21 C         143.4477  139.7677  165.0518 C.3     1  UNL1        0.2525
     22 O         142.0902  140.2666  164.6541 O.3     1  UNL1       -0.4712
     23 O         143.1613  139.2319  161.2061 O.3     1  UNL1       -0.3505
     24 C         144.0390  138.1465  161.7552 C.3     1  UNL1        0.1741
     25 C         141.6838  137.7559  156.4481 C.3     1  UNL1        0.0722
     26 C         142.0571  136.3350  156.1451 C.3     1  UNL1        0.0194
     27 C         143.3754  135.7906  156.6093 C.3     1  UNL1        0.0229
     28 C         143.7487  134.3697  156.3063 C.3     1  UNL1        0.0934
     29 N         142.8037  133.4933  155.5390 N.am    1  UNL1       -0.2795
     30 C         143.1770  132.0725  155.2360 C.2     1  UNL1        0.2261
     31 C         144.4953  131.5280  155.7002 C.3     1  UNL1        0.0948
     32 O         142.2318  131.1960  154.4687 O.2     1  UNL1       -0.2749
     33 C         141.4853  134.0377  155.0748 C.3     1  UNL1        0.0934
     34 C         141.1120  135.4586  155.3778 C.3     1  UNL1        0.0229
@<TRIPOS>BOND
     1    21    22    1
     2    22    11    1
     3    11    12   ar
     4    12    13   ar
     5    13    14    1
     6    13    15   ar
     7    15    16    1
     8    15    17   ar
     9    17    18   ar
    10    18     7    1
    11     7     8    2
    12     7     9   am
    13     1     9    1
    14     1     2    1
    15     2     3    1
    16     3     4    1
    17     4    25    1
    18    25    26    1
    19    26    27    1
    20    27    28    1
    21    28    29    1
    22    29    30   am
    23    30    31    1
    24    30    32    2
    25    29    33    1
    26    33    34    1
    27     4     5    1
    28     5     6    1
    29     6    23    1
    30    23    24    1
    31    18    11   ar
    32     6     1    1
    33    34    26    1
    34    14    19    1
    35    14    20    1
    36     9    10    1
@<TRIPOS>MOLECULE
*****
 34 36 0 0 0
SMALL
GASTEIGER

@<TRIPOS>ATOM
      1 C         141.7783  142.2691  163.5117 C.3     1  UNL1        0.1017
      2 C         142.8474  143.2962  163.2839 C.3     1  UNL1        0.0394
      3 C         143.3118  143.5989  161.8900 C.3     1  UNL1        0.0739
      4 N         142.7070  142.8746  160.7241 N.3     1  UNL1       -0.2705
      5 C         141.6378  141.8475  160.9519 C.3     1  UNL1        0.1037
      6 C         141.1734  141.5447  162.3456 C.3     1  UNL1        0.1490
      7 C         141.8872  140.7968  165.6496 C.2     1  UNL1        0.2488
      8 O         142.9248  139.9302  164.9999 O.2     1  UNL1       -0.2700
      9 N         141.3139  141.9663  164.9055 N.am    1  UNL1       -0.2999
     10 H         140.6328  142.5351  165.3319 H       1  UNL1        0.1498
     11 C         139.9556  140.4052  167.3424 C.ar    1  UNL1        0.1443
     12 C         139.4912  140.1024  168.7362 C.ar    1  UNL1        0.0520
     13 C         140.4940  139.8886  169.8310 C.ar    1  UNL1        0.0553
     14 N         140.0296  139.5859  171.2248 N.pl3   1  UNL1       -0.3563
     15 C         141.9612  139.9776  169.5320 C.ar    1  UNL1        0.0709
     16 CL        142.9640  139.7638  170.6269 Cl      1  UNL1       -0.0810
     17 C         142.4256  140.2803  168.1383 C.ar    1  UNL1        0.0202
     18 C         141.4227  140.4941  167.0434 C.ar    1  UNL1        0.0882
     19 H         139.0666  139.5275  171.4211 H       1  UNL1        0.1424
     20 H         140.6878  139.4455  171.9434 H       1  UNL1        0.1424
     21 C         138.2209  139.4480  165.6617 C.3     1  UNL1        0.2525
     22 O         138.9527  140.6189  166.2476 O.3     1  UNL1       -0.4712
     23 O         140.1043  140.5176  162.5735 O.3     1  UNL1       -0.3505
     24 C         140.4443  139.0575  162.5246 C.3     1  UNL1        0.1741
     25 C         143.1714  143.1774  159.3303 C.3     1  UNL1        0.0722
     26 C         142.3635  144.0854  158.4512 C.3     1  UNL1        0.0194
     27 C         142.6286  144.1317  156.9756 C.3     1  UNL1        0.0229
     28 C         141.8207  145.0397  156.0965 C.3     1  UNL1        0.0934
     29 N         140.7477  145.9015  156.6931 N.am    1  UNL1       -0.2795
     30 C         139.9398  146.8095  155.8140 C.2     1  UNL1        0.2261
     31 C         140.2049  146.8558  154.3384 C.3     1  UNL1        0.0948
     32 O         138.8668  147.6714  156.4106 O.2     1  UNL1       -0.2749
     33 C         140.4826  145.8553  158.1688 C.3     1  UNL1        0.0934
     34 C         141.2904  144.9473  159.0478 C.3     1  UNL1        0.0229
@<TRIPOS>BOND
     1    21    22    1
     2    22    11    1
     3    11    12   ar
     4    12    13   ar
     5    13    14    1
     6    13    15   ar
     7    15    16    1
     8    15    17   ar
     9    17    18   ar
    10    18     7    1
    11     7     8    2
    12     7     9   am
    13     1     9    1
    14     1     2    1
    15     2     3    1
    16     3     4    1
    17     4    25    1
    18    25    26    1
    19    26    27    1
    20    27    28    1
    21    28    29    1
    22    29    30   am
    23    30    31    1
    24    30    32    2
    25    29    33    1
    26    33    34    1
    27     4     5    1
    28     5     6    1
    29     6    23    1
    30    23    24    1
    31    18    11   ar
    32     6     1    1
    33    34    26    1
    34    14    19    1
    35    14    20    1
    36     9    10    1
@<TRIPOS>MOLECULE
*****
 34 36 0 0 0
SMALL
GASTEIGER

@<TRIPOS>ATOM
      1 C         138.1898  140.4002  162.2737 C.3     1  UNL1        0.1017
      2 C         138.6181  139.0008  162.6024 C.3     1  UNL1        0.0394
      3 C         138.7256  138.5661  164.0341 C.3     1  UNL1        0.0739
      4 N         138.4048  139.5308  165.1369 N.3     1  UNL1       -0.2705
      5 C         137.9765  140.9303  164.8082 C.3     1  UNL1        0.1037
      6 C         137.8690  141.3650  163.3766 C.3     1  UNL1        0.1490
      7 C         139.2570  141.4730  160.1618 C.2     1  UNL1        0.2488
      8 O         140.5393  141.6763  160.9130 O.2     1  UNL1       -0.2700
      9 N         138.0822  140.8349  160.8421 N.am    1  UNL1       -0.2999
     10 H         137.2406  140.7015  160.3491 H       1  UNL1        0.1498
     11 C         138.8006  140.9086  157.6671 C.ar    1  UNL1        0.1443
     12 C         138.6931  141.3433  156.2356 C.ar    1  UNL1        0.0520
     13 C         138.9343  142.7772  155.8671 C.ar    1  UNL1        0.0553
     14 N         138.8267  143.2119  154.4354 N.pl3   1  UNL1       -0.3563
     15 C         139.2830  143.7763  156.9301 C.ar    1  UNL1        0.0709
     16 CL        139.5242  145.2102  156.5616 Cl      1  UNL1       -0.0810
     17 C         139.3906  143.3416  158.3616 C.ar    1  UNL1        0.0202
     18 C         139.1494  141.9077  158.7302 C.ar    1  UNL1        0.0882
     19 H         138.5978  142.5562  153.7377 H       1  UNL1        0.1424
     20 H         138.9850  144.1530  154.1935 H       1  UNL1        0.1424
     21 C         139.6990  138.4994  158.0394 C.3     1  UNL1        0.2525
     22 O         138.5594  139.4747  158.0357 O.3     1  UNL1       -0.4712
     23 O         137.4406  142.7644  163.0479 O.3     1  UNL1       -0.3505
     24 C         138.4655  143.8525  162.9223 C.3     1  UNL1        0.1741
     25 C         138.5123  139.0961  166.5685 C.3     1  UNL1        0.0722
     26 C         139.4539  139.8026  167.4981 C.3     1  UNL1        0.0194
     27 C         140.8320  140.1697  167.0335 C.3     1  UNL1        0.0229
     28 C         141.7736  140.8762  167.9632 C.3     1  UNL1        0.0934
     29 N         141.3370  141.2156  169.3575 N.am    1  UNL1       -0.2795
     30 C         142.2786  141.9221  170.2872 C.2     1  UNL1        0.2261
     31 C         143.6567  142.2892  169.8225 C.3     1  UNL1        0.0948
     32 O         141.8420  142.2614  171.6816 O.2     1  UNL1       -0.2749
     33 C         139.9589  140.8484  169.8222 C.3     1  UNL1        0.0934
     34 C         139.0173  140.1419  168.8926 C.3     1  UNL1        0.0229
@<TRIPOS>BOND
     1    21    22    1
     2    22    11    1
     3    11    12   ar
     4    12    13   ar
     5    13    14    1
     6    13    15   ar
     7    15    16    1
     8    15    17   ar
     9    17    18   ar
    10    18     7    1
    11     7     8    2
    12     7     9   am
    13     1     9    1
    14     1     2    1
    15     2     3    1
    16     3     4    1
    17     4    25    1
    18    25    26    1
    19    26    27    1
    20    27    28    1
    21    28    29    1
    22    29    30   am
    23    30    31    1
    24    30    32    2
    25    29    33    1
    26    33    34    1
    27     4     5    1
    28     5     6    1
    29     6    23    1
    30    23    24    1
    31    18    11   ar
    32     6     1    1
    33    34    26    1
    34    14    19    1
    35    14    20    1
    36     9    10    1
@<TRIPOS>MOLECULE
*****
 34 36 0 0 0
SMALL
GASTEIGER

@<TRIPOS>ATOM
      1 C         140.4135  140.7678  162.9991 C.3     1  UNL1        0.1017
      2 C         141.4165  141.6127  162.2711 C.3     1  UNL1        0.0394
      3 C         141.5523  141.4995  160.7815 C.3     1  UNL1        0.0739
      4 N         140.6851  140.5413  160.0200 N.3     1  UNL1       -0.2705
      5 C         139.6821  139.6964  160.7481 C.3     1  UNL1        0.1037
      6 C         139.5463  139.8096  162.2376 C.3     1  UNL1        0.1490
      7 C         141.0828  139.9878  165.3852 C.2     1  UNL1        0.2488
      8 O         142.0239  138.9814  164.7923 O.2     1  UNL1       -0.2700
      9 N         140.2777  140.8810  164.4887 N.am    1  UNL1       -0.2999
     10 H         139.6600  141.5415  164.8778 H       1  UNL1        0.1498
     11 C         139.6134  139.8805  167.5252 C.ar    1  UNL1        0.1443
     12 C         139.4776  139.9938  169.0147 C.ar    1  UNL1        0.0520
     13 C         140.6753  140.3275  169.8538 C.ar    1  UNL1        0.0553
     14 N         140.5395  140.4407  171.3434 N.pl3   1  UNL1       -0.3563
     15 C         142.0089  140.5480  169.2035 C.ar    1  UNL1        0.0709
     16 CL        143.2066  140.8817  170.0426 Cl      1  UNL1       -0.0810
     17 C         142.1447  140.4347  167.7140 C.ar    1  UNL1        0.0202
     18 C         140.9470  140.1010  166.8748 C.ar    1  UNL1        0.0882
     19 H         139.6642  140.2960  171.7703 H       1  UNL1        0.1424
     20 H         141.3255  140.6598  171.8942 H       1  UNL1        0.1424
     21 C         137.5439  138.3826  167.0528 C.3     1  UNL1        0.2525
     22 O         138.4157  139.5468  166.6861 O.3     1  UNL1       -0.4712
     23 O         138.5433  138.9646  162.9656 O.3     1  UNL1       -0.3505
     24 C         138.9326  137.6076  163.4723 C.3     1  UNL1        0.1741
     25 C         140.8210  140.4281  158.5305 C.3     1  UNL1        0.0722
     26 C         141.1432  139.1033  157.9053 C.3     1  UNL1        0.0194
     27 C         142.4721  138.4565  158.1614 C.3     1  UNL1        0.0229
     28 C         142.7943  137.1316  157.5362 C.3     1  UNL1        0.0934
     29 N         141.7876  136.4535  156.6549 N.am    1  UNL1       -0.2795
     30 C         142.1098  135.1287  156.0297 C.2     1  UNL1        0.2261
     31 C         143.4387  134.4818  156.2858 C.3     1  UNL1        0.0948
     32 O         141.1030  134.4506  155.1483 O.2     1  UNL1       -0.2749
     33 C         140.4586  137.1003  156.3987 C.3     1  UNL1        0.0934
     34 C         140.1364  138.4252  157.0240 C.3     1  UNL1        0.0229
@<TRIPOS>BOND
     1    21    22    1
     2    22    11    1
     3    11    12   ar
     4    12    13   ar
     5    13    14    1
     6    13    15   ar
     7    15    16    1
     8    15    17   ar
     9    17    18   ar
    10    18     7    1
    11     7     8    2
    12     7     9   am
    13     1     9    1
    14     1     2    1
    15     2     3    1
    16     3     4    1
    17     4    25    1
    18    25    26    1
    19    26    27    1
    20    27    28    1
    21    28    29    1
    22    29    30   am
    23    30    31    1
    24    30    32    2
    25    29    33    1
    26    33    34    1
    27     4     5    1
    28     5     6    1
    29     6    23    1
    30    23    24    1
    31    18    11   ar
    32     6     1    1
    33    34    26    1
    34    14    19    1
    35    14    20    1
    36     9    10    1
@<TRIPOS>MOLECULE
*****
 34 36 0 0 0
SMALL
GASTEIGER

@<TRIPOS>ATOM
      1 C         141.1002  140.6704  163.3937 C.3     1  UNL1        0.1017
      2 C         141.0476  139.1952  163.1275 C.3     1  UNL1        0.0394
      3 C         140.5114  138.6873  161.8218 C.3     1  UNL1        0.0739
      4 N         140.0279  139.6547  160.7824 N.3     1  UNL1       -0.2705
      5 C         140.0805  141.1299  161.0486 C.3     1  UNL1        0.1037
      6 C         140.6166  141.6378  162.3542 C.3     1  UNL1        0.1490
      7 C         140.7325  141.2811  165.8920 C.2     1  UNL1        0.2488
      8 O         139.2927  140.8761  165.7792 O.2     1  UNL1       -0.2700
      9 N         141.6363  141.1783  164.6993 N.am    1  UNL1       -0.2999
     10 H         142.5813  141.4441  164.7733 H       1  UNL1        0.1498
     11 C         142.5803  141.2807  167.7185 C.ar    1  UNL1        0.1443
     12 C         143.1164  141.7886  169.0241 C.ar    1  UNL1        0.0520
     13 C         142.3409  142.8048  169.8088 C.ar    1  UNL1        0.0553
     14 N         142.8771  143.3127  171.1145 N.pl3   1  UNL1       -0.3563
     15 C         141.0293  143.3132  169.2880 C.ar    1  UNL1        0.0709
     16 CL        140.2539  144.3295  170.0728 Cl      1  UNL1       -0.0810
     17 C         140.4932  142.8053  167.9824 C.ar    1  UNL1        0.0202
     18 C         141.2687  141.7890  167.1977 C.ar    1  UNL1        0.0882
     19 H         143.7379  142.9791  171.4563 H       1  UNL1        0.1424
     20 H         142.3681  143.9797  171.6296 H       1  UNL1        0.1424
     21 C         143.1050  138.8011  167.1474 C.3     1  UNL1        0.2525
     22 O         143.3557  140.2644  166.9337 O.3     1  UNL1       -0.4712
     23 O         140.6692  143.1131  162.6204 O.3     1  UNL1       -0.3505
     24 C         139.5050  143.7998  163.2706 C.3     1  UNL1        0.1741
     25 C         139.4918  139.1468  159.4768 C.3     1  UNL1        0.0722
     26 C         140.4206  138.5283  158.4744 C.3     1  UNL1        0.0194
     27 C         139.8662  137.7417  157.3238 C.3     1  UNL1        0.0229
     28 C         140.7949  137.1232  156.3213 C.3     1  UNL1        0.0934
     29 N         142.2780  137.2913  156.4695 N.am    1  UNL1       -0.2795
     30 C         143.2068  136.6728  155.4670 C.2     1  UNL1        0.2261
     31 C         142.6524  135.8862  154.3165 C.3     1  UNL1        0.0948
     32 O         144.6900  136.8409  155.6152 O.2     1  UNL1       -0.2749
     33 C         142.8325  138.0779  157.6201 C.3     1  UNL1        0.0934
     34 C         141.9038  138.6964  158.6226 C.3     1  UNL1        0.0229
@<TRIPOS>BOND
     1    21    22    1
     2    22    11    1
     3    11    12   ar
     4    12    13   ar
     5    13    14    1
     6    13    15   ar
     7    15    16    1
     8    15    17   ar
     9    17    18   ar
    10    18     7    1
    11     7     8    2
    12     7     9   am
    13     1     9    1
    14     1     2    1
    15     2     3    1
    16     3     4    1
    17     4    25    1
    18    25    26    1
    19    26    27    1
    20    27    28    1
    21    28    29    1
    22    29    30   am
    23    30    31    1
    24    30    32    2
    25    29    33    1
    26    33    34    1
    27     4     5    1
    28     5     6    1
    29     6    23    1
    30    23    24    1
    31    18    11   ar
    32     6     1    1
    33    34    26    1
    34    14    19    1
    35    14    20    1
    36     9    10    1
@<TRIPOS>MOLECULE
*****
 34 36 0 0 0
SMALL
GASTEIGER

@<TRIPOS>ATOM
      1 C         141.0378  140.3265  163.2092 C.3     1  UNL1        0.1017
      2 C         141.2101  141.3014  162.0823 C.3     1  UNL1        0.0394
      3 C         140.7066  140.9594  160.7112 C.3     1  UNL1        0.0739
      4 N         140.0310  139.6427  160.4672 N.3     1  UNL1       -0.2705
      5 C         139.8588  138.6678  161.5941 C.3     1  UNL1        0.1037
      6 C         140.3621  139.0097  162.9651 C.3     1  UNL1        0.1490
      7 C         140.8058  141.6694  165.4211 C.2     1  UNL1        0.2488
      8 O         139.5670  142.3285  164.8911 O.2     1  UNL1       -0.2700
      9 N         141.5412  140.6684  164.5802 N.am    1  UNL1       -0.2999
     10 H         142.3542  140.2358  164.9281 H       1  UNL1        0.1498
     11 C         142.7837  142.1241  167.0432 C.ar    1  UNL1        0.1443
     12 C         143.2871  142.4659  168.4142 C.ar    1  UNL1        0.0520
     13 C         142.3159  142.6950  169.5342 C.ar    1  UNL1        0.0553
     14 N         142.8194  143.0369  170.9053 N.pl3   1  UNL1       -0.3563
     15 C         140.8414  142.5823  169.2832 C.ar    1  UNL1        0.0709
     16 CL        139.8703  142.8114  170.4032 Cl      1  UNL1       -0.0810
     17 C         140.3381  142.2404  167.9122 C.ar    1  UNL1        0.0202
     18 C         141.3092  142.0113  166.7922 C.ar    1  UNL1        0.0882
     19 H         143.7872  143.1109  171.0700 H       1  UNL1        0.1424
     20 H         142.1820  143.1873  171.6404 H       1  UNL1        0.1424
     21 C         144.3163  143.0622  165.1668 C.3     1  UNL1        0.2525
     22 O         143.7549  141.8950  165.9232 O.3     1  UNL1       -0.4712
     23 O         140.1899  138.0348  164.0920 O.3     1  UNL1       -0.3505
     24 C         141.2896  137.0703  164.4240 C.3     1  UNL1        0.1741
     25 C         139.5277  139.3008  159.0962 C.3     1  UNL1        0.0722
     26 C         140.3766  138.4841  158.1676 C.3     1  UNL1        0.0194
     27 C         139.7390  137.7190  157.0460 C.3     1  UNL1        0.0229
     28 C         140.5879  136.9023  156.1174 C.3     1  UNL1        0.0934
     29 N         142.0745  136.8507  156.3103 N.am    1  UNL1       -0.2795
     30 C         142.9235  136.0341  155.3817 C.2     1  UNL1        0.2261
     31 C         142.2858  135.2690  154.2601 C.3     1  UNL1        0.0948
     32 O         144.4102  135.9825  155.5748 O.2     1  UNL1       -0.2749
     33 C         142.7123  137.6158  157.4320 C.3     1  UNL1        0.0934
     34 C         141.8633  138.4325  158.3606 C.3     1  UNL1        0.0229
@<TRIPOS>BOND
     1    21    22    1
     2    22    11    1
     3    11    12   ar
     4    12    13   ar
     5    13    14    1
     6    13    15   ar
     7    15    16    1
     8    15    17   ar
     9    17    18   ar
    10    18     7    1
    11     7     8    2
    12     7     9   am
    13     1     9    1
    14     1     2    1
    15     2     3    1
    16     3     4    1
    17     4    25    1
    18    25    26    1
    19    26    27    1
    20    27    28    1
    21    28    29    1
    22    29    30   am
    23    30    31    1
    24    30    32    2
    25    29    33    1
    26    33    34    1
    27     4     5    1
    28     5     6    1
    29     6    23    1
    30    23    24    1
    31    18    11   ar
    32     6     1    1
    33    34    26    1
    34    14    19    1
    35    14    20    1
    36     9    10    1
@<TRIPOS>MOLECULE
*****
 34 36 0 0 0
SMALL
GASTEIGER

@<TRIPOS>ATOM
      1 C         140.9899  138.7040  163.2699 C.3     1  UNL1        0.1017
      2 C         142.0923  137.8551  162.7094 C.3     1  UNL1        0.0394
      3 C         142.2873  137.7633  161.2249 C.3     1  UNL1        0.0739
      4 N         141.3799  138.5202  160.3010 N.3     1  UNL1       -0.2705
      5 C         140.2775  139.3691  160.8616 C.3     1  UNL1        0.1037
      6 C         140.0825  139.4610  162.3459 C.3     1  UNL1        0.1490
      7 C         141.2815  140.0021  165.5015 C.2     1  UNL1        0.2488
      8 O         141.9630  141.1165  164.7642 O.2     1  UNL1       -0.2700
      9 N         140.7949  138.7959  164.7543 N.am    1  UNL1       -0.2999
     10 H         140.3475  138.0645  165.2382 H       1  UNL1        0.1498
     11 C         139.7111  139.9671  167.5709 C.ar    1  UNL1        0.1443
     12 C         139.5161  140.0589  169.0553 C.ar    1  UNL1        0.0520
     13 C         140.6964  140.2776  169.9547 C.ar    1  UNL1        0.0553
     14 N         140.5014  140.3695  171.4392 N.pl3   1  UNL1       -0.3563
     15 C         142.0718  140.4045  169.3697 C.ar    1  UNL1        0.0709
     16 CL        143.2521  140.6232  170.2691 Cl      1  UNL1       -0.0810
     17 C         142.2668  140.3127  167.8853 C.ar    1  UNL1        0.0202
     18 C         141.0864  140.0939  166.9859 C.ar    1  UNL1        0.0882
     19 H         139.5987  140.2862  171.8232 H       1  UNL1        0.1424
     20 H         141.2761  140.5130  172.0295 H       1  UNL1        0.1424
     21 C         137.7321  138.4830  166.7765 C.3     1  UNL1        0.2525
     22 O         138.5307  139.7484  166.6715 O.3     1  UNL1       -0.4712
     23 O         138.9801  140.3098  162.9065 O.3     1  UNL1       -0.3505
     24 C         139.0605  141.8044  162.8082 C.3     1  UNL1        0.1741
     25 C         141.5749  138.4284  158.8166 C.3     1  UNL1        0.0722
     26 C         142.6891  139.1867  158.1582 C.3     1  UNL1        0.0194
     27 C         143.0903  138.8586  156.7506 C.3     1  UNL1        0.0229
     28 C         144.2045  139.6170  156.0922 C.3     1  UNL1        0.0934
     29 N         144.9174  140.7035  156.8413 N.am    1  UNL1       -0.2795
     30 C         146.0315  141.4618  156.1829 C.2     1  UNL1        0.2261
     31 C         146.4328  141.1337  154.7753 C.3     1  UNL1        0.0948
     32 O         146.7445  142.5484  156.9321 O.2     1  UNL1       -0.2749
     33 C         144.5162  141.0316  158.2489 C.3     1  UNL1        0.0934
     34 C         143.4020  140.2733  158.9074 C.3     1  UNL1        0.0229
@<TRIPOS>BOND
     1    21    22    1
     2    22    11    1
     3    11    12   ar
     4    12    13   ar
     5    13    14    1
     6    13    15   ar
     7    15    16    1
     8    15    17   ar
     9    17    18   ar
    10    18     7    1
    11     7     8    2
    12     7     9   am
    13     1     9    1
    14     1     2    1
    15     2     3    1
    16     3     4    1
    17     4    25    1
    18    25    26    1
    19    26    27    1
    20    27    28    1
    21    28    29    1
    22    29    30   am
    23    30    31    1
    24    30    32    2
    25    29    33    1
    26    33    34    1
    27     4     5    1
    28     5     6    1
    29     6    23    1
    30    23    24    1
    31    18    11   ar
    32     6     1    1
    33    34    26    1
    34    14    19    1
    35    14    20    1
    36     9    10    1
@<TRIPOS>MOLECULE
*****
 34 36 0 0 0
SMALL
GASTEIGER

@<TRIPOS>ATOM
      1 C         141.8425  141.5136  162.8310 C.3     1  UNL1        0.1017
      2 C         140.7788  142.1208  161.9651 C.3     1  UNL1        0.0394
      3 C         141.1366  142.6854  160.6222 C.3     1  UNL1        0.0739
      4 N         142.5581  142.6429  160.1454 N.3     1  UNL1       -0.2705
      5 C         143.6219  142.0358  161.0113 C.3     1  UNL1        0.1037
      6 C         143.2641  141.4711  162.3541 C.3     1  UNL1        0.1490
      7 C         141.7672  141.7373  165.4183 C.2     1  UNL1        0.2488
      8 O         142.4074  143.0902  165.3201 O.2     1  UNL1       -0.2700
      9 N         141.4848  140.9490  164.1738 N.am    1  UNL1       -0.2999
     10 H         141.0646  140.0610  164.2383 H       1  UNL1        0.1498
     11 C         140.0164  140.6807  167.0210 C.ar    1  UNL1        0.1443
     12 C         139.6586  140.1160  168.3637 C.ar    1  UNL1        0.0520
     13 C         140.6939  140.0433  169.4468 C.ar    1  UNL1        0.0553
     14 N         140.3361  139.4786  170.7896 N.pl3   1  UNL1       -0.3563
     15 C         142.0869  140.5352  169.1870 C.ar    1  UNL1        0.0709
     16 CL        143.1222  140.4624  170.2700 Cl      1  UNL1       -0.0810
     17 C         142.4446  141.0998  167.8442 C.ar    1  UNL1        0.0202
     18 C         141.4094  141.1726  166.7612 C.ar    1  UNL1        0.0882
     19 H         139.4218  139.1557  170.9601 H       1  UNL1        0.1424
     20 H         141.0156  139.4308  171.5004 H       1  UNL1        0.1424
     21 C         138.3469  139.4963  165.4210 C.3     1  UNL1        0.2525
     22 O         138.9811  140.7535  165.9379 O.3     1  UNL1       -0.4712
     23 O         144.3278  140.8640  163.2200 O.3     1  UNL1       -0.3505
     24 C         145.6272  141.5840  163.4278 C.3     1  UNL1        0.1741
     25 C         142.9159  143.2076  158.8026 C.3     1  UNL1        0.0722
     26 C         141.8823  143.9360  157.9957 C.3     1  UNL1        0.0194
     27 C         141.9315  145.4313  157.8884 C.3     1  UNL1        0.0229
     28 C         140.8980  146.1598  157.0815 C.3     1  UNL1        0.0934
     29 N         139.8151  145.3930  156.3820 N.am    1  UNL1       -0.2795
     30 C         138.7816  146.1215  155.5751 C.2     1  UNL1        0.2261
     31 C         138.8308  147.6168  155.4678 C.3     1  UNL1        0.0948
     32 O         137.6987  145.3545  154.8755 O.2     1  UNL1       -0.2749
     33 C         139.7659  143.8976  156.4892 C.3     1  UNL1        0.0934
     34 C         140.7994  143.1691  157.2961 C.3     1  UNL1        0.0229
@<TRIPOS>BOND
     1    21    22    1
     2    22    11    1
     3    11    12   ar
     4    12    13   ar
     5    13    14    1
     6    13    15   ar
     7    15    16    1
     8    15    17   ar
     9    17    18   ar
    10    18     7    1
    11     7     8    2
    12     7     9   am
    13     1     9    1
    14     1     2    1
    15     2     3    1
    16     3     4    1
    17     4    25    1
    18    25    26    1
    19    26    27    1
    20    27    28    1
    21    28    29    1
    22    29    30   am
    23    30    31    1
    24    30    32    2
    25    29    33    1
    26    33    34    1
    27     4     5    1
    28     5     6    1
    29     6    23    1
    30    23    24    1
    31    18    11   ar
    32     6     1    1
    33    34    26    1
    34    14    19    1
    35    14    20    1
    36     9    10    1
