@<TRIPOS>MOLECULE
*****
 35 39 0 0 0
SMALL
GASTEIGER

@<TRIPOS>ATOM
      1 N         138.1138  140.3959  163.2465 N.3     1  UNL1       -0.2712
      2 C         137.4483  141.7099  162.9630 C.3     1  UNL1        0.0738
      3 C         138.0193  142.7308  163.9021 C.3     1  UNL1        0.0372
      4 C         137.9609  144.1738  164.3072 C.3     1  UNL1        0.0245
      5 C         138.9432  144.3827  165.4214 C.3     1  UNL1        0.0910
      6 N         139.6088  143.0685  165.7049 N.pl3   1  UNL1       -0.3054
      7 C         139.0378  142.0477  164.7659 C.3     1  UNL1        0.0901
      8 C         139.0962  140.6046  164.3607 C.3     1  UNL1        0.0921
      9 C         140.6606  142.8192  166.7448 C.ar    1  UNL1        0.0826
     10 C         140.3510  143.0475  168.1946 C.ar    1  UNL1        0.0176
     11 C         141.4029  142.7982  169.2345 C.ar    1  UNL1        0.0015
     12 C         142.7644  142.3205  168.8246 C.ar    1  UNL1        0.0032
     13 C         143.0741  142.0921  167.3748 C.ar    1  UNL1        0.0385
     14 C         142.0222  142.3414  166.3349 C.ar    1  UNL1        0.1600
     15 O         142.3318  142.1131  164.8851 O.3     1  UNL1       -0.4032
     16 C         143.2742  141.0175  164.4830 C.3     1  UNL1        0.5753
     17 F         144.2165  139.9219  164.0809 F       1  UNL1       -0.1328
     18 F         142.1684  140.0140  164.6261 F       1  UNL1       -0.1328
     19 F         144.3798  142.0210  164.3399 F       1  UNL1       -0.1328
     20 C         137.8444  139.1005  162.5399 C.3     1  UNL1        0.0731
     21 C         138.3992  138.8660  161.1662 C.3     1  UNL1        0.0294
     22 C         137.8064  139.5776  159.9862 C.3     1  UNL1        0.0666
     23 S         138.6609  140.4825  159.1492 S.3     1  UNL1       -0.0756
     24 C         141.2782  140.8055  161.0715 C.3     1  UNL1        0.1340
     25 N         140.3826  141.9157  160.6075 N.ar    1  UNL1       -0.2872
     26 C         139.1796  141.7673  159.7239 C.ar    1  UNL1        0.1933
     27 N         138.5863  143.1292  159.5160 N.ar    1  UNL1       -0.1221
     28 N         139.4227  144.1194  160.2710 N.ar    1  UNL1       -0.1266
     29 C         140.5329  143.3694  160.9457 C.ar    1  UNL1        0.1862
     30 C         141.6050  143.9681  161.8072 C.ar    1  UNL1        0.1362
     31 C         143.0496  143.7440  161.4709 C.ar    1  UNL1        0.1211
     32 N         144.1217  144.3427  162.3324 N.ar    1  UNL1       -0.2390
     33 C         143.7492  145.1654  163.5302 C.ar    1  UNL1        0.1195
     34 C         142.3047  145.3894  163.8664 C.ar    1  UNL1        0.1196
     35 N         141.2326  144.7907  163.0048 N.ar    1  UNL1       -0.2375
@<TRIPOS>BOND
     1    24    25    1
     2    25    26   ar
     3    26    23    1
     4    23    22    1
     5    22    21    1
     6    21    20    1
     7    20     1    1
     8     1     2    1
     9     2     3    1
    10     3     4    1
    11     4     5    1
    12     5     6    1
    13     6     9    1
    14     9    10   ar
    15    10    11   ar
    16    11    12   ar
    17    12    13   ar
    18    13    14   ar
    19    14    15    1
    20    15    16    1
    21    16    17    1
    22    16    18    1
    23    16    19    1
    24     6     7    1
    25     7     8    1
    26    26    27   ar
    27    27    28   ar
    28    28    29   ar
    29    29    30    1
    30    30    31   ar
    31    31    32   ar
    32    32    33   ar
    33    33    34   ar
    34    34    35   ar
    35    29    25   ar
    36    35    30   ar
    37     8     1    1
    38     7     3    1
    39    14     9   ar
@<TRIPOS>MOLECULE
*****
 35 39 0 0 0
SMALL
GASTEIGER

@<TRIPOS>ATOM
      1 N         139.5798  138.4134  163.8660 N.3     1  UNL1       -0.2712
      2 C         140.9422  137.7862  163.8424 C.3     1  UNL1        0.0738
      3 C         141.6973  138.2728  165.0437 C.3     1  UNL1        0.0372
      4 C         143.0059  138.1858  165.7715 C.3     1  UNL1        0.0245
      5 C         142.9191  139.0600  166.9875 C.3     1  UNL1        0.0910
      6 N         141.5566  139.6872  167.0110 N.pl3   1  UNL1       -0.3054
      7 C         140.8016  139.2006  165.8097 C.3     1  UNL1        0.0901
      8 C         139.4929  139.2876  165.0818 C.3     1  UNL1        0.0921
      9 C         141.0401  140.6345  168.0530 C.ar    1  UNL1        0.0826
     10 C         140.5694  140.1094  169.3768 C.ar    1  UNL1        0.0176
     11 C         140.0529  141.0567  170.4188 C.ar    1  UNL1        0.0015
     12 C         140.0069  142.5293  170.1368 C.ar    1  UNL1        0.0032
     13 C         140.4775  143.0545  168.8129 C.ar    1  UNL1        0.0385
     14 C         140.9941  142.1071  167.7710 C.ar    1  UNL1        0.1600
     15 O         141.4647  142.6323  166.4471 O.3     1  UNL1       -0.4032
     16 C         142.8690  142.3672  165.9914 C.3     1  UNL1        0.5753
     17 F         144.2734  142.1021  165.5357 F       1  UNL1       -0.1328
     18 F         142.3550  141.9668  164.6403 F       1  UNL1       -0.1328
     19 F         143.3830  142.7676  167.3425 F       1  UNL1       -0.1328
     20 C         138.4948  138.2034  162.8517 C.3     1  UNL1        0.0731
     21 C         137.9070  139.3784  162.1280 C.3     1  UNL1        0.0294
     22 C         137.6713  139.3066  160.6483 C.3     1  UNL1        0.0666
     23 S         138.3597  140.2736  159.7314 S.3     1  UNL1       -0.0756
     24 C         141.1811  140.6548  161.3263 C.3     1  UNL1        0.1340
     25 N         140.1966  141.7398  161.0047 N.ar    1  UNL1       -0.2872
     26 C         138.8997  141.5646  160.2716 C.ar    1  UNL1        0.1933
     27 N         138.2376  142.9070  160.1735 N.ar    1  UNL1       -0.1221
     28 N         139.1253  143.9119  160.8460 N.ar    1  UNL1       -0.1266
     29 C         140.3360  143.1905  161.3597 C.ar    1  UNL1        0.1862
     30 C         141.4845  143.8110  162.0987 C.ar    1  UNL1        0.1362
     31 C         141.2232  144.7717  163.2206 C.ar    1  UNL1        0.1211
     32 N         142.3717  145.3921  163.9596 N.ar    1  UNL1       -0.2390
     33 C         143.7815  145.0517  163.5766 C.ar    1  UNL1        0.1195
     34 C         144.0428  144.0910  162.4547 C.ar    1  UNL1        0.1196
     35 N         142.8942  143.4706  161.7157 N.ar    1  UNL1       -0.2375
@<TRIPOS>BOND
     1    24    25    1
     2    25    26   ar
     3    26    23    1
     4    23    22    1
     5    22    21    1
     6    21    20    1
     7    20     1    1
     8     1     2    1
     9     2     3    1
    10     3     4    1
    11     4     5    1
    12     5     6    1
    13     6     9    1
    14     9    10   ar
    15    10    11   ar
    16    11    12   ar
    17    12    13   ar
    18    13    14   ar
    19    14    15    1
    20    15    16    1
    21    16    17    1
    22    16    18    1
    23    16    19    1
    24     6     7    1
    25     7     8    1
    26    26    27   ar
    27    27    28   ar
    28    28    29   ar
    29    29    30    1
    30    30    31   ar
    31    31    32   ar
    32    32    33   ar
    33    33    34   ar
    34    34    35   ar
    35    29    25   ar
    36    35    30   ar
    37     8     1    1
    38     7     3    1
    39    14     9   ar
@<TRIPOS>MOLECULE
*****
 35 39 0 0 0
SMALL
GASTEIGER

@<TRIPOS>ATOM
      1 N         140.2291  144.3099  163.0494 N.3     1  UNL1       -0.2712
      2 C         141.3962  145.1868  163.3942 C.3     1  UNL1        0.0738
      3 C         142.6521  144.4034  163.1516 C.3     1  UNL1        0.0372
      4 C         144.1497  144.4612  163.2148 C.3     1  UNL1        0.0245
      5 C         144.6844  143.1359  162.7590 C.3     1  UNL1        0.0910
      6 N         143.5172  142.2590  162.4142 N.pl3   1  UNL1       -0.3054
      7 C         142.2613  143.0424  162.6568 C.3     1  UNL1        0.0901
      8 C         140.7637  142.9846  162.5937 C.3     1  UNL1        0.0921
      9 C         143.5928  140.8467  161.9145 C.ar    1  UNL1        0.0826
     10 C         143.6916  140.5763  160.4424 C.ar    1  UNL1        0.0176
     11 C         143.7672  139.1640  159.9427 C.ar    1  UNL1        0.0015
     12 C         143.7440  138.0221  160.9150 C.ar    1  UNL1        0.0032
     13 C         143.6453  138.2925  162.3872 C.ar    1  UNL1        0.0385
     14 C         143.5697  139.7048  162.8869 C.ar    1  UNL1        0.1600
     15 O         143.4709  139.9752  164.3590 O.3     1  UNL1       -0.4032
     16 C         143.7564  138.8801  165.3435 C.3     1  UNL1        0.5753
     17 F         144.0419  137.7849  166.3280 F       1  UNL1       -0.1328
     18 F         145.2261  139.0289  165.0828 F       1  UNL1       -0.1328
     19 F         142.2867  138.7313  165.6041 F       1  UNL1       -0.1328
     20 C         138.7815  144.6913  163.1437 C.3     1  UNL1        0.0731
     21 C         137.7184  143.6443  162.9899 C.3     1  UNL1        0.0294
     22 C         137.4645  142.6648  164.0973 C.3     1  UNL1        0.0666
     23 S         138.1549  141.3332  164.0938 S.3     1  UNL1       -0.0756
     24 C         140.2419  142.5079  166.3106 C.3     1  UNL1        0.1340
     25 N         139.4845  141.2170  166.4097 N.ar    1  UNL1       -0.2872
     26 C         138.5252  140.6770  165.3908 C.ar    1  UNL1        0.1933
     27 N         138.0013  139.3656  165.8965 N.ar    1  UNL1       -0.1221
     28 N         138.6367  139.0951  167.2281 N.ar    1  UNL1       -0.1266
     29 C         139.5534  140.2393  167.5453 C.ar    1  UNL1        0.1862
     30 C         140.3918  140.3809  168.7811 C.ar    1  UNL1        0.1362
     31 C         139.7587  140.8082  170.0720 C.ar    1  UNL1        0.1211
     32 N         140.5971  140.9498  171.3078 N.ar    1  UNL1       -0.2390
     33 C         142.0686  140.6641  171.2525 C.ar    1  UNL1        0.1195
     34 C         142.7018  140.2367  169.9615 C.ar    1  UNL1        0.1196
     35 N         141.8633  140.0951  168.7258 N.ar    1  UNL1       -0.2375
@<TRIPOS>BOND
     1    24    25    1
     2    25    26   ar
     3    26    23    1
     4    23    22    1
     5    22    21    1
     6    21    20    1
     7    20     1    1
     8     1     2    1
     9     2     3    1
    10     3     4    1
    11     4     5    1
    12     5     6    1
    13     6     9    1
    14     9    10   ar
    15    10    11   ar
    16    11    12   ar
    17    12    13   ar
    18    13    14   ar
    19    14    15    1
    20    15    16    1
    21    16    17    1
    22    16    18    1
    23    16    19    1
    24     6     7    1
    25     7     8    1
    26    26    27   ar
    27    27    28   ar
    28    28    29   ar
    29    29    30    1
    30    30    31   ar
    31    31    32   ar
    32    32    33   ar
    33    33    34   ar
    34    34    35   ar
    35    29    25   ar
    36    35    30   ar
    37     8     1    1
    38     7     3    1
    39    14     9   ar
@<TRIPOS>MOLECULE
*****
 35 39 0 0 0
SMALL
GASTEIGER

@<TRIPOS>ATOM
      1 N         141.6214  143.4131  161.7306 N.3     1  UNL1       -0.2712
      2 C         140.4292  144.3211  161.6672 C.3     1  UNL1        0.0738
      3 C         139.2831  143.6290  162.3436 C.3     1  UNL1        0.0372
      4 C         137.8378  143.7625  162.7224 C.3     1  UNL1        0.0245
      5 C         137.4285  142.5093  163.4380 C.3     1  UNL1        0.0910
      6 N         138.6209  141.6012  163.5013 N.pl3   1  UNL1       -0.3054
      7 C         139.7670  142.2933  162.8250 C.3     1  UNL1        0.0901
      8 C         141.2122  142.1598  162.4461 C.3     1  UNL1        0.0921
      9 C         138.6601  140.2402  164.1306 C.ar    1  UNL1        0.0826
     10 C         138.4221  140.0878  165.6037 C.ar    1  UNL1        0.0176
     11 C         138.4614  138.7267  166.2329 C.ar    1  UNL1        0.0015
     12 C         138.7387  137.5180  165.3891 C.ar    1  UNL1        0.0032
     13 C         138.9767  137.6704  163.9159 C.ar    1  UNL1        0.0385
     14 C         138.9374  139.0314  163.2866 C.ar    1  UNL1        0.1600
     15 O         139.1754  139.1838  161.8135 O.3     1  UNL1       -0.4032
     16 C         140.3555  138.5167  161.1716 C.3     1  UNL1        0.5753
     17 F         141.5358  137.8495  160.5296 F       1  UNL1       -0.1328
     18 F         141.2360  139.0039  162.2840 F       1  UNL1       -0.1328
     19 F         139.4751  138.0296  160.0592 F       1  UNL1       -0.1328
     20 C         142.9838  143.7067  161.1758 C.3     1  UNL1        0.0731
     21 C         144.1984  143.5323  162.0385 C.3     1  UNL1        0.0294
     22 C         144.9778  142.2517  161.9864 C.3     1  UNL1        0.0666
     23 S         145.4420  141.6040  163.2572 S.3     1  UNL1       -0.0756
     24 C         144.5865  143.6803  165.6250 C.3     1  UNL1        0.1340
     25 N         144.0697  142.2832  165.4481 N.ar    1  UNL1       -0.2872
     26 C         144.4630  141.3289  164.3597 C.ar    1  UNL1        0.1933
     27 N         143.7052  140.0511  164.5675 N.ar    1  UNL1       -0.1221
     28 N         142.8437  140.2157  165.7843 N.ar    1  UNL1       -0.1266
     29 C         143.0689  141.5953  166.3286 C.ar    1  UNL1        0.1862
     30 C         142.4092  142.1835  167.5405 C.ar    1  UNL1        0.1362
     31 C         140.9473  142.5183  167.5106 C.ar    1  UNL1        0.1211
     32 N         140.2876  143.1065  168.7225 N.ar    1  UNL1       -0.2390
     33 C         141.0898  143.3600  169.9644 C.ar    1  UNL1        0.1195
     34 C         142.5517  143.0253  169.9943 C.ar    1  UNL1        0.1196
     35 N         143.2114  142.4370  168.7823 N.ar    1  UNL1       -0.2375
@<TRIPOS>BOND
     1    24    25    1
     2    25    26   ar
     3    26    23    1
     4    23    22    1
     5    22    21    1
     6    21    20    1
     7    20     1    1
     8     1     2    1
     9     2     3    1
    10     3     4    1
    11     4     5    1
    12     5     6    1
    13     6     9    1
    14     9    10   ar
    15    10    11   ar
    16    11    12   ar
    17    12    13   ar
    18    13    14   ar
    19    14    15    1
    20    15    16    1
    21    16    17    1
    22    16    18    1
    23    16    19    1
    24     6     7    1
    25     7     8    1
    26    26    27   ar
    27    27    28   ar
    28    28    29   ar
    29    29    30    1
    30    30    31   ar
    31    31    32   ar
    32    32    33   ar
    33    33    34   ar
    34    34    35   ar
    35    29    25   ar
    36    35    30   ar
    37     8     1    1
    38     7     3    1
    39    14     9   ar
@<TRIPOS>MOLECULE
*****
 35 39 0 0 0
SMALL
GASTEIGER

@<TRIPOS>ATOM
      1 N         139.4197  139.7392  160.5307 N.3     1  UNL1       -0.2712
      2 C         138.8098  140.4785  159.3768 C.3     1  UNL1        0.0738
      3 C         139.2841  141.9004  159.4346 C.3     1  UNL1        0.0372
      4 C         139.2002  143.2361  158.7572 C.3     1  UNL1        0.0245
      5 C         140.0513  144.2011  159.5282 C.3     1  UNL1        0.0910
      6 N         140.6612  143.4618  160.6821 N.pl3   1  UNL1       -0.3054
      7 C         140.1870  142.0399  160.6242 C.3     1  UNL1        0.0901
      8 C         140.2709  140.7042  161.3016 C.3     1  UNL1        0.0921
      9 C         141.5834  144.0424  161.7128 C.ar    1  UNL1        0.0826
     10 C         143.0401  143.6848  161.7025 C.ar    1  UNL1        0.0176
     11 C         143.9623  144.2655  162.7332 C.ar    1  UNL1        0.0015
     12 C         143.4278  145.2037  163.7743 C.ar    1  UNL1        0.0032
     13 C         141.9710  145.5613  163.7848 C.ar    1  UNL1        0.0385
     14 C         141.0489  144.9807  162.7540 C.ar    1  UNL1        0.1600
     15 O         139.5922  145.3383  162.7644 O.3     1  UNL1       -0.4032
     16 C         138.6336  144.5545  163.6110 C.3     1  UNL1        0.5753
     17 F         137.6750  143.7708  164.4578 F       1  UNL1       -0.1328
     18 F         139.2028  145.1908  164.8444 F       1  UNL1       -0.1328
     19 F         138.0644  143.9183  162.3777 F       1  UNL1       -0.1328
     20 C         139.2145  138.2894  160.8564 C.3     1  UNL1        0.0731
     21 C         139.6467  137.7516  162.1883 C.3     1  UNL1        0.0294
     22 C         138.7182  137.8253  163.3641 C.3     1  UNL1        0.0666
     23 S         138.4344  139.1472  164.0138 S.3     1  UNL1       -0.0756
     24 C         140.7016  140.9386  165.5303 C.3     1  UNL1        0.1340
     25 N         139.6307  140.1253  166.1949 N.ar    1  UNL1       -0.2872
     26 C         138.5886  139.3019  165.4978 C.ar    1  UNL1        0.1933
     27 N         137.7277  138.6602  166.5453 N.ar    1  UNL1       -0.1221
     28 N         138.2377  139.0871  167.8898 N.ar    1  UNL1       -0.1266
     29 C         139.4139  139.9926  167.6733 C.ar    1  UNL1        0.1862
     30 C         140.2299  140.6499  168.7466 C.ar    1  UNL1        0.1362
     31 C         140.9411  139.8119  169.7673 C.ar    1  UNL1        0.1211
     32 N         141.7571  140.4692  170.8407 N.ar    1  UNL1       -0.2390
     33 C         141.8619  141.9647  170.8932 C.ar    1  UNL1        0.1195
     34 C         141.1508  142.8028  169.8724 C.ar    1  UNL1        0.1196
     35 N         140.3348  142.1453  168.7991 N.ar    1  UNL1       -0.2375
@<TRIPOS>BOND
     1    24    25    1
     2    25    26   ar
     3    26    23    1
     4    23    22    1
     5    22    21    1
     6    21    20    1
     7    20     1    1
     8     1     2    1
     9     2     3    1
    10     3     4    1
    11     4     5    1
    12     5     6    1
    13     6     9    1
    14     9    10   ar
    15    10    11   ar
    16    11    12   ar
    17    12    13   ar
    18    13    14   ar
    19    14    15    1
    20    15    16    1
    21    16    17    1
    22    16    18    1
    23    16    19    1
    24     6     7    1
    25     7     8    1
    26    26    27   ar
    27    27    28   ar
    28    28    29   ar
    29    29    30    1
    30    30    31   ar
    31    31    32   ar
    32    32    33   ar
    33    33    34   ar
    34    34    35   ar
    35    29    25   ar
    36    35    30   ar
    37     8     1    1
    38     7     3    1
    39    14     9   ar
@<TRIPOS>MOLECULE
*****
 35 39 0 0 0
SMALL
GASTEIGER

@<TRIPOS>ATOM
      1 N         142.1196  139.0222  162.9957 N.3     1  UNL1       -0.2712
      2 C         143.3671  139.3924  163.7417 C.3     1  UNL1        0.0738
      3 C         143.6356  140.8486  163.5020 C.3     1  UNL1        0.0372
      4 C         144.5726  141.9774  163.8149 C.3     1  UNL1        0.0245
      5 C         144.0701  143.2048  163.1141 C.3     1  UNL1        0.0910
      6 N         142.8225  142.8345  162.3680 N.pl3   1  UNL1       -0.3054
      7 C         142.5540  141.3783  162.6078 C.3     1  UNL1        0.0901
      8 C         141.6170  140.2495  162.2948 C.3     1  UNL1        0.0921
      9 C         141.9897  143.7582  161.5295 C.ar    1  UNL1        0.0826
     10 C         142.2437  143.8667  160.0551 C.ar    1  UNL1        0.0176
     11 C         141.4109  144.7904  159.2166 C.ar    1  UNL1        0.0015
     12 C         140.3241  145.6056  159.8524 C.ar    1  UNL1        0.0032
     13 C         140.0700  145.4971  161.3268 C.ar    1  UNL1        0.0385
     14 C         140.9028  144.5734  162.1653 C.ar    1  UNL1        0.1600
     15 O         140.6488  144.4649  163.6396 O.3     1  UNL1       -0.4032
     16 C         139.2990  144.0426  164.1390 C.3     1  UNL1        0.5753
     17 F         137.9490  143.6203  164.6384 F       1  UNL1       -0.1328
     18 F         139.2128  145.2929  164.9633 F       1  UNL1       -0.1328
     19 F         139.3852  142.7924  163.3147 F       1  UNL1       -0.1328
     20 C         141.4858  137.6632  162.9572 C.3     1  UNL1        0.0731
     21 C         140.3177  137.3549  163.8462 C.3     1  UNL1        0.0294
     22 C         138.9562  137.8853  163.5068 C.3     1  UNL1        0.0666
     23 S         138.4427  139.1215  164.1837 S.3     1  UNL1       -0.0756
     24 C         140.6636  140.9234  165.7554 C.3     1  UNL1        0.1340
     25 N         139.5871  140.0965  166.3938 N.ar    1  UNL1       -0.2872
     26 C         138.5663  139.2682  165.6713 C.ar    1  UNL1        0.1933
     27 N         137.6908  138.6125  166.6977 N.ar    1  UNL1       -0.1221
     28 N         138.1705  139.0355  168.0545 N.ar    1  UNL1       -0.1266
     29 C         139.3425  139.9526  167.8668 C.ar    1  UNL1        0.1862
     30 C         140.1314  140.6104  168.9599 C.ar    1  UNL1        0.1362
     31 C         140.9731  139.7790  169.8820 C.ar    1  UNL1        0.1211
     32 N         141.7620  140.4367  170.9751 N.ar    1  UNL1       -0.2390
     33 C         141.7090  141.9261  171.1462 C.ar    1  UNL1        0.1195
     34 C         140.8673  142.7575  170.2242 C.ar    1  UNL1        0.1196
     35 N         140.0785  142.0997  169.1310 N.ar    1  UNL1       -0.2375
@<TRIPOS>BOND
     1    24    25    1
     2    25    26   ar
     3    26    23    1
     4    23    22    1
     5    22    21    1
     6    21    20    1
     7    20     1    1
     8     1     2    1
     9     2     3    1
    10     3     4    1
    11     4     5    1
    12     5     6    1
    13     6     9    1
    14     9    10   ar
    15    10    11   ar
    16    11    12   ar
    17    12    13   ar
    18    13    14   ar
    19    14    15    1
    20    15    16    1
    21    16    17    1
    22    16    18    1
    23    16    19    1
    24     6     7    1
    25     7     8    1
    26    26    27   ar
    27    27    28   ar
    28    28    29   ar
    29    29    30    1
    30    30    31   ar
    31    31    32   ar
    32    32    33   ar
    33    33    34   ar
    34    34    35   ar
    35    29    25   ar
    36    35    30   ar
    37     8     1    1
    38     7     3    1
    39    14     9   ar
@<TRIPOS>MOLECULE
*****
 35 39 0 0 0
SMALL
GASTEIGER

@<TRIPOS>ATOM
      1 N         139.3109  138.8436  165.2306 N.3     1  UNL1       -0.2712
      2 C         139.1421  138.8850  166.7205 C.3     1  UNL1        0.0738
      3 C         139.9514  140.0330  167.2469 C.3     1  UNL1        0.0372
      4 C         140.3473  140.7682  168.4930 C.3     1  UNL1        0.0245
      5 C         141.2609  141.8907  168.0986 C.3     1  UNL1        0.0910
      6 N         141.4296  141.8492  166.6087 N.pl3   1  UNL1       -0.3054
      7 C         140.6203  140.7012  166.0823 C.3     1  UNL1        0.0901
      8 C         140.2244  139.9661  164.8362 C.3     1  UNL1        0.0921
      9 C         142.2615  142.7906  165.7890 C.ar    1  UNL1        0.0826
     10 C         143.7408  142.8797  166.0204 C.ar    1  UNL1        0.0176
     11 C         144.5727  143.8211  165.2008 C.ar    1  UNL1        0.0015
     12 C         143.9253  144.6733  164.1498 C.ar    1  UNL1        0.0032
     13 C         142.4459  144.5841  163.9184 C.ar    1  UNL1        0.0385
     14 C         141.6140  143.6428  164.7380 C.ar    1  UNL1        0.1600
     15 O         140.1347  143.5536  164.5067 O.3     1  UNL1       -0.4032
     16 C         139.2126  144.5395  165.1607 C.3     1  UNL1        0.5753
     17 F         138.2904  145.5254  165.8147 F       1  UNL1       -0.1328
     18 F         139.0894  145.2842  163.8644 F       1  UNL1       -0.1328
     19 F         139.3357  143.7948  166.4569 F       1  UNL1       -0.1328
     20 C         138.6773  137.8536  164.2987 C.3     1  UNL1        0.0731
     21 C         139.3745  137.4671  163.0281 C.3     1  UNL1        0.0294
     22 C         138.9704  138.0986  161.7288 C.3     1  UNL1        0.0666
     23 S         137.8084  139.0460  161.6848 S.3     1  UNL1       -0.0756
     24 C         140.0606  140.3381  159.7080 C.3     1  UNL1        0.1340
     25 N         139.0775  141.1032  160.5436 N.ar    1  UNL1       -0.2872
     26 C         138.0423  140.5093  161.4522 C.ar    1  UNL1        0.1933
     27 N         137.2821  141.6356  162.0875 N.ar    1  UNL1       -0.1221
     28 N         137.8474  142.9256  161.5715 N.ar    1  UNL1       -0.1266
     29 C         138.9571  142.5966  160.6173 C.ar    1  UNL1        0.1862
     30 C         139.7986  143.5871  159.8683 C.ar    1  UNL1        0.1362
     31 C         141.0866  144.0768  160.4610 C.ar    1  UNL1        0.1211
     32 N         141.9280  145.0673  159.7120 N.ar    1  UNL1       -0.2390
     33 C         141.4814  145.5680  158.3703 C.ar    1  UNL1        0.1195
     34 C         140.1934  145.0783  157.7777 C.ar    1  UNL1        0.1196
     35 N         139.3520  144.0878  158.5268 N.ar    1  UNL1       -0.2375
@<TRIPOS>BOND
     1    24    25    1
     2    25    26   ar
     3    26    23    1
     4    23    22    1
     5    22    21    1
     6    21    20    1
     7    20     1    1
     8     1     2    1
     9     2     3    1
    10     3     4    1
    11     4     5    1
    12     5     6    1
    13     6     9    1
    14     9    10   ar
    15    10    11   ar
    16    11    12   ar
    17    12    13   ar
    18    13    14   ar
    19    14    15    1
    20    15    16    1
    21    16    17    1
    22    16    18    1
    23    16    19    1
    24     6     7    1
    25     7     8    1
    26    26    27   ar
    27    27    28   ar
    28    28    29   ar
    29    29    30    1
    30    30    31   ar
    31    31    32   ar
    32    32    33   ar
    33    33    34   ar
    34    34    35   ar
    35    29    25   ar
    36    35    30   ar
    37     8     1    1
    38     7     3    1
    39    14     9   ar
@<TRIPOS>MOLECULE
*****
 35 39 0 0 0
SMALL
GASTEIGER

@<TRIPOS>ATOM
      1 N         141.0516  140.4274  165.7718 N.3     1  UNL1       -0.2712
      2 C         142.3929  140.8029  166.3284 C.3     1  UNL1        0.0738
      3 C         142.8870  142.0033  165.5768 C.3     1  UNL1        0.0372
      4 C         144.0214  142.9773  165.4563 C.3     1  UNL1        0.0245
      5 C         143.6865  143.9457  164.3607 C.3     1  UNL1        0.0910
      6 N         142.3451  143.5701  163.8041 N.pl3   1  UNL1       -0.3054
      7 C         141.8511  142.3697  164.5557 C.3     1  UNL1        0.0901
      8 C         140.7167  141.3957  164.6763 C.3     1  UNL1        0.0921
      9 C         141.6245  144.2717  162.6913 C.ar    1  UNL1        0.0826
     10 C         142.1329  144.1656  161.2842 C.ar    1  UNL1        0.0176
     11 C         141.4122  144.8672  160.1714 C.ar    1  UNL1        0.0015
     12 C         140.1831  145.6750  160.4657 C.ar    1  UNL1        0.0032
     13 C         139.6746  145.7812  161.8730 C.ar    1  UNL1        0.0385
     14 C         140.3953  145.0795  162.9858 C.ar    1  UNL1        0.1600
     15 O         139.8868  145.1856  164.3929 O.3     1  UNL1       -0.4032
     16 C         138.5479  144.6125  164.7518 C.3     1  UNL1        0.5753
     17 F         137.2090  144.0393  165.1107 F       1  UNL1       -0.1328
     18 F         138.4672  145.5384  165.9292 F       1  UNL1       -0.1328
     19 F         138.6287  143.6867  163.5744 F       1  UNL1       -0.1328
     20 C         140.1954  139.2842  166.2303 C.3     1  UNL1        0.0731
     21 C         140.0988  138.0392  165.3994 C.3     1  UNL1        0.0294
     22 C         141.2566  137.6162  164.5445 C.3     1  UNL1        0.0666
     23 S         141.0444  137.3138  163.0907 S.3     1  UNL1       -0.0756
     24 C         141.4438  139.5565  160.7540 C.3     1  UNL1        0.1340
     25 N         140.1318  139.0340  161.2595 N.ar    1  UNL1       -0.2872
     26 C         139.9482  138.0031  162.3336 C.ar    1  UNL1        0.1933
     27 N         138.4759  137.7826  162.5177 N.ar    1  UNL1       -0.1221
     28 N         137.7496  138.6771  161.5573 N.ar    1  UNL1       -0.1266
     29 C         138.7729  139.4506  160.7797 C.ar    1  UNL1        0.1862
     30 C         138.4876  140.4628  159.7102 C.ar    1  UNL1        0.1362
     31 C         138.6001  141.9274  160.0143 C.ar    1  UNL1        0.1211
     32 N         138.3147  142.9396  158.9448 N.ar    1  UNL1       -0.2390
     33 C         137.9168  142.4872  157.5710 C.ar    1  UNL1        0.1195
     34 C         137.8043  141.0227  157.2669 C.ar    1  UNL1        0.1196
     35 N         138.0897  140.0105  158.3365 N.ar    1  UNL1       -0.2375
@<TRIPOS>BOND
     1    24    25    1
     2    25    26   ar
     3    26    23    1
     4    23    22    1
     5    22    21    1
     6    21    20    1
     7    20     1    1
     8     1     2    1
     9     2     3    1
    10     3     4    1
    11     4     5    1
    12     5     6    1
    13     6     9    1
    14     9    10   ar
    15    10    11   ar
    16    11    12   ar
    17    12    13   ar
    18    13    14   ar
    19    14    15    1
    20    15    16    1
    21    16    17    1
    22    16    18    1
    23    16    19    1
    24     6     7    1
    25     7     8    1
    26    26    27   ar
    27    27    28   ar
    28    28    29   ar
    29    29    30    1
    30    30    31   ar
    31    31    32   ar
    32    32    33   ar
    33    33    34   ar
    34    34    35   ar
    35    29    25   ar
    36    35    30   ar
    37     8     1    1
    38     7     3    1
    39    14     9   ar
@<TRIPOS>MOLECULE
*****
 35 39 0 0 0
SMALL
GASTEIGER

@<TRIPOS>ATOM
      1 N         141.6002  142.1027  160.3458 N.3     1  UNL1       -0.2712
      2 C         140.5834  141.8990  159.2621 C.3     1  UNL1        0.0738
      3 C         139.4638  141.0752  159.8259 C.3     1  UNL1        0.0372
      4 C         138.1434  140.4401  159.5045 C.3     1  UNL1        0.0245
      5 C         137.6522  139.7422  160.7381 C.3     1  UNL1        0.0910
      6 N         138.6691  139.9459  161.8219 N.pl3   1  UNL1       -0.3054
      7 C         139.7887  140.7697  161.2581 C.3     1  UNL1        0.0901
      8 C         141.1091  141.4048  161.5794 C.3     1  UNL1        0.0921
      9 C         138.5817  139.4185  163.2234 C.ar    1  UNL1        0.0826
     10 C         138.9177  137.9845  163.5073 C.ar    1  UNL1        0.0176
     11 C         138.8303  137.4570  164.9088 C.ar    1  UNL1        0.0015
     12 C         138.4069  138.3635  166.0263 C.ar    1  UNL1        0.0032
     13 C         138.0709  139.7977  165.7424 C.ar    1  UNL1        0.0385
     14 C         138.1583  140.3251  164.3409 C.ar    1  UNL1        0.1600
     15 O         137.8224  141.7591  164.0569 O.3     1  UNL1       -0.4032
     16 C         138.6059  142.8571  164.7130 C.3     1  UNL1        0.5753
     17 F         139.3895  143.9551  165.3691 F       1  UNL1       -0.1328
     18 F         137.3453  143.6505  164.8907 F       1  UNL1       -0.1328
     19 F         139.8664  142.0637  164.5353 F       1  UNL1       -0.1328
     20 C         142.8830  142.8697  160.2184 C.3     1  UNL1        0.0731
     21 C         143.8041  142.9916  161.3960 C.3     1  UNL1        0.0294
     22 C         144.7488  141.8748  161.7282 C.3     1  UNL1        0.0666
     23 S         145.2683  141.7230  163.1271 S.3     1  UNL1       -0.0756
     24 C         143.6367  142.6492  165.7972 C.3     1  UNL1        0.1340
     25 N         143.8181  141.2389  165.3197 N.ar    1  UNL1       -0.2872
     26 C         144.5681  140.8131  164.0924 C.ar    1  UNL1        0.1933
     27 N         144.4949  139.3177  163.9999 N.ar    1  UNL1       -0.1221
     28 N         143.6998  138.8193  165.1701 N.ar    1  UNL1       -0.1266
     29 C         143.2814  140.0066  165.9858 C.ar    1  UNL1        0.1862
     30 C         142.4691  139.9683  167.2463 C.ar    1  UNL1        0.1362
     31 C         141.1301  140.6426  167.2963 C.ar    1  UNL1        0.1211
     32 N         140.3178  140.6043  168.5567 N.ar    1  UNL1       -0.2390
     33 C         140.8446  139.8918  169.7671 C.ar    1  UNL1        0.1195
     34 C         142.1835  139.2176  169.7170 C.ar    1  UNL1        0.1196
     35 N         142.9958  139.2559  168.4565 N.ar    1  UNL1       -0.2375
@<TRIPOS>BOND
     1    24    25    1
     2    25    26   ar
     3    26    23    1
     4    23    22    1
     5    22    21    1
     6    21    20    1
     7    20     1    1
     8     1     2    1
     9     2     3    1
    10     3     4    1
    11     4     5    1
    12     5     6    1
    13     6     9    1
    14     9    10   ar
    15    10    11   ar
    16    11    12   ar
    17    12    13   ar
    18    13    14   ar
    19    14    15    1
    20    15    16    1
    21    16    17    1
    22    16    18    1
    23    16    19    1
    24     6     7    1
    25     7     8    1
    26    26    27   ar
    27    27    28   ar
    28    28    29   ar
    29    29    30    1
    30    30    31   ar
    31    31    32   ar
    32    32    33   ar
    33    33    34   ar
    34    34    35   ar
    35    29    25   ar
    36    35    30   ar
    37     8     1    1
    38     7     3    1
    39    14     9   ar
