@<TRIPOS>MOLECULE
*****
 27 29 0 0 0
SMALL
GASTEIGER

@<TRIPOS>ATOM
      1 C         139.0859  138.8672  164.1661 C.ar    1  UNL1        0.1390
      2 C         138.3077  139.2058  165.4028 C.ar    1  UNL1        0.0366
      3 C         139.0277  139.6144  166.6536 C.ar    1  UNL1        0.0001
      4 C         140.5260  139.6843  166.6677 C.ar    1  UNL1       -0.0078
      5 C         141.3043  139.3457  165.4309 C.ar    1  UNL1        0.0001
      6 C         140.5842  138.9372  164.1801 C.ar    1  UNL1        0.0366
      7 C         141.2461  140.0929  167.9185 C.3     1  UNL1        0.0772
      8 C         142.5001  139.4706  168.4572 C.3     1  UNL1        0.0221
      9 C         142.8677  140.1885  169.7219 C.3     1  UNL1        0.0268
     10 C         141.8407  141.2546  169.9649 C.3     1  UNL1        0.1315
     11 N         140.8386  141.1955  168.8503 N.3     1  UNL1       -0.2890
     12 H         140.8246  142.0842  168.3499 H       1  UNL1        0.1239
     13 C         141.8196  142.2118  171.1196 C.2     1  UNL1        0.2336
     14 N         142.8920  143.2522  171.2510 N.am    1  UNL1       -0.3277
     15 O         140.7262  142.1283  172.1430 O.2     1  UNL1       -0.2739
     16 H         143.6097  143.3070  170.5793 H       1  UNL1        0.1450
     17 H         142.8782  143.8804  172.0089 H       1  UNL1        0.1450
     18 O         138.3658  138.4586  162.9152 O.3     1  UNL1       -0.4706
     19 C         137.8403  139.5042  161.9768 C.3     1  UNL1        0.2320
     20 C         139.7644  142.9678  161.7506 C.ar    1  UNL1        0.0682
     21 C         138.8937  143.8326  162.6130 C.ar    1  UNL1        0.0103
     22 C         137.6718  143.2547  163.2634 C.ar    1  UNL1        0.0005
     23 C         137.3206  141.8119  163.0514 C.ar    1  UNL1       -0.0006
     24 C         138.1914  140.9470  162.1889 C.ar    1  UNL1        0.0218
     25 C         139.4132  141.5250  161.5385 C.ar    1  UNL1        0.0096
     26 N         142.2081  144.1237  160.4498 N.1     1  UNL1       -0.1908
     27 C         140.9862  143.5458  161.1002 C.1     1  UNL1        0.1004
@<TRIPOS>BOND
     1    26    27    3
     2    27    20    1
     3    20    21   ar
     4    21    22   ar
     5    22    23   ar
     6    23    24   ar
     7    24    19    1
     8    19    18    1
     9    18     1    1
    10     1     2   ar
    11     2     3   ar
    12     3     4   ar
    13     7     4    1
    14     7     8    1
    15     8     9    1
    16     9    10    1
    17    10    13    1
    18    13    14   am
    19    13    15    2
    20    10    11    1
    21     4     5   ar
    22     5     6   ar
    23    24    25   ar
    24    25    20   ar
    25     6     1   ar
    26    11     7    1
    27    14    16    1
    28    14    17    1
    29    11    12    1
@<TRIPOS>MOLECULE
*****
 27 29 0 0 0
SMALL
GASTEIGER

@<TRIPOS>ATOM
      1 C         143.1536  139.2259  164.1931 C.ar    1  UNL1        0.1390
      2 C         142.4999  138.5856  165.3817 C.ar    1  UNL1        0.0366
      3 C         142.2214  139.3970  166.6121 C.ar    1  UNL1        0.0001
      4 C         142.5966  140.8487  166.6540 C.ar    1  UNL1       -0.0078
      5 C         143.2504  141.4890  165.4655 C.ar    1  UNL1        0.0001
      6 C         143.5288  140.6776  164.2350 C.ar    1  UNL1        0.0366
      7 C         142.3181  141.6601  167.8845 C.3     1  UNL1        0.0772
      8 C         143.3261  142.0703  168.9170 C.3     1  UNL1        0.0221
      9 C         142.6138  142.8675  169.9691 C.3     1  UNL1        0.0268
     10 C         141.1656  142.9500  169.5870 C.3     1  UNL1        0.1315
     11 N         140.9829  142.2038  168.2986 N.3     1  UNL1       -0.2890
     12 H         140.6283  142.8352  167.5802 H       1  UNL1        0.1239
     13 C         140.0891  143.6550  170.3578 C.2     1  UNL1        0.2336
     14 N         139.0833  142.8616  171.1382 N.am    1  UNL1       -0.3277
     15 O         140.0184  145.1532  170.3483 O.2     1  UNL1       -0.2739
     16 H         139.1297  141.8782  171.1444 H       1  UNL1        0.1450
     17 H         138.3767  143.3243  171.6441 H       1  UNL1        0.1450
     18 O         143.4321  138.4145  162.9626 O.3     1  UNL1       -0.4706
     19 C         142.4700  138.4423  161.8122 C.3     1  UNL1        0.2320
     20 C         138.9826  140.3277  161.9958 C.ar    1  UNL1        0.0682
     21 C         138.1040  139.2453  162.5494 C.ar    1  UNL1        0.0103
     22 C         138.6807  137.8953  162.8573 C.ar    1  UNL1        0.0005
     23 C         140.1360  137.6276  162.6116 C.ar    1  UNL1       -0.0006
     24 C         141.0146  138.7100  162.0579 C.ar    1  UNL1        0.0218
     25 C         140.4379  140.0600  161.7500 C.ar    1  UNL1        0.0096
     26 N         137.8292  143.0278  161.3800 N.1     1  UNL1       -0.1908
     27 C         138.4059  141.6777  161.6879 C.1     1  UNL1        0.1004
@<TRIPOS>BOND
     1    26    27    3
     2    27    20    1
     3    20    21   ar
     4    21    22   ar
     5    22    23   ar
     6    23    24   ar
     7    24    19    1
     8    19    18    1
     9    18     1    1
    10     1     2   ar
    11     2     3   ar
    12     3     4   ar
    13     7     4    1
    14     7     8    1
    15     8     9    1
    16     9    10    1
    17    10    13    1
    18    13    14   am
    19    13    15    2
    20    10    11    1
    21     4     5   ar
    22     5     6   ar
    23    24    25   ar
    24    25    20   ar
    25     6     1   ar
    26    11     7    1
    27    14    16    1
    28    14    17    1
    29    11    12    1
@<TRIPOS>MOLECULE
*****
 27 29 0 0 0
SMALL
GASTEIGER

@<TRIPOS>ATOM
      1 C         139.2945  138.1493  164.3685 C.ar    1  UNL1        0.1390
      2 C         138.5042  138.9288  165.3773 C.ar    1  UNL1        0.0366
      3 C         139.2090  139.6461  166.4903 C.ar    1  UNL1        0.0001
      4 C         140.7041  139.5838  166.5945 C.ar    1  UNL1       -0.0078
      5 C         141.4944  138.8042  165.5857 C.ar    1  UNL1        0.0001
      6 C         140.7896  138.0870  164.4727 C.ar    1  UNL1        0.0366
      7 C         141.4089  140.3011  167.7076 C.3     1  UNL1        0.0772
      8 C         142.5825  139.7842  168.4857 C.3     1  UNL1        0.0221
      9 C         142.9628  140.8248  169.4969 C.3     1  UNL1        0.0268
     10 C         142.0241  141.9848  169.3438 C.3     1  UNL1        0.1315
     11 N         141.0637  141.6610  168.2379 N.3     1  UNL1       -0.2890
     12 H         141.1463  142.3539  167.4939 H       1  UNL1        0.1239
     13 C         142.0425  143.2468  170.1542 C.2     1  UNL1        0.2336
     14 N         143.2524  143.5976  170.9686 N.am    1  UNL1       -0.3277
     15 O         140.8511  144.1581  170.1503 O.2     1  UNL1       -0.2739
     16 H         144.0343  142.9994  170.9712 H       1  UNL1        0.1450
     17 H         143.2645  144.4259  171.5006 H       1  UNL1        0.1450
     18 O         138.5897  137.4320  163.2555 O.3     1  UNL1       -0.4706
     19 C         138.1261  138.1922  162.0484 C.3     1  UNL1        0.2320
     20 C         138.9257  142.0669  161.7362 C.ar    1  UNL1        0.0682
     21 C         140.1632  142.0336  160.8892 C.ar    1  UNL1        0.0103
     22 C         140.7217  140.7199  160.4287 C.ar    1  UNL1        0.0005
     23 C         140.0427  139.4394  160.8150 C.ar    1  UNL1       -0.0006
     24 C         138.8052  139.4727  161.6620 C.ar    1  UNL1        0.0218
     25 C         138.2467  140.7864  162.1225 C.ar    1  UNL1        0.0096
     26 N         137.8086  144.6944  162.6573 N.1     1  UNL1       -0.1908
     27 C         138.3671  143.3806  162.1968 C.1     1  UNL1        0.1004
@<TRIPOS>BOND
     1    26    27    3
     2    27    20    1
     3    20    21   ar
     4    21    22   ar
     5    22    23   ar
     6    23    24   ar
     7    24    19    1
     8    19    18    1
     9    18     1    1
    10     1     2   ar
    11     2     3   ar
    12     3     4   ar
    13     7     4    1
    14     7     8    1
    15     8     9    1
    16     9    10    1
    17    10    13    1
    18    13    14   am
    19    13    15    2
    20    10    11    1
    21     4     5   ar
    22     5     6   ar
    23    24    25   ar
    24    25    20   ar
    25     6     1   ar
    26    11     7    1
    27    14    16    1
    28    14    17    1
    29    11    12    1
@<TRIPOS>MOLECULE
*****
 27 29 0 0 0
SMALL
GASTEIGER

@<TRIPOS>ATOM
      1 C         143.1503  139.0648  163.5957 C.ar    1  UNL1        0.1390
      2 C         143.4658  140.5070  163.8616 C.ar    1  UNL1        0.0366
      3 C         143.2043  141.0944  165.2167 C.ar    1  UNL1        0.0001
      4 C         142.6273  140.2398  166.3060 C.ar    1  UNL1       -0.0078
      5 C         142.3118  138.7976  166.0402 C.ar    1  UNL1        0.0001
      6 C         142.5733  138.2102  164.6851 C.ar    1  UNL1        0.0366
      7 C         142.3658  140.8273  167.6612 C.3     1  UNL1        0.0772
      8 C         142.9942  142.0695  168.2198 C.3     1  UNL1        0.0221
      9 C         142.4468  142.2857  169.5995 C.3     1  UNL1        0.0268
     10 C         141.4801  141.1771  169.8936 C.3     1  UNL1        0.1315
     11 N         141.4300  140.2758  168.6957 N.3     1  UNL1       -0.2890
     12 H         140.4808  140.2470  168.3236 H       1  UNL1        0.1239
     13 C         140.7003  141.0008  171.1629 C.2     1  UNL1        0.2336
     14 N         140.0445  139.6857  171.4637 N.am    1  UNL1       -0.3277
     15 O         140.5764  142.1396  172.1312 O.2     1  UNL1       -0.2739
     16 H         140.1258  138.9383  170.8281 H       1  UNL1        0.1450
     17 H         139.5327  139.5700  172.2967 H       1  UNL1        0.1450
     18 O         143.4118  138.4773  162.2405 O.3     1  UNL1       -0.4706
     19 C         142.2636  138.1125  161.3470 C.3     1  UNL1        0.2320
     20 C         139.0492  140.4192  161.6590 C.ar    1  UNL1        0.0682
     21 C         138.1005  139.4904  162.3570 C.ar    1  UNL1        0.0103
     22 C         138.5395  138.1023  162.7183 C.ar    1  UNL1        0.0005
     23 C         139.9271  137.6430  162.3817 C.ar    1  UNL1       -0.0006
     24 C         140.8759  138.5718  161.6837 C.ar    1  UNL1        0.0218
     25 C         140.4369  139.9599  161.3223 C.ar    1  UNL1        0.0096
     26 N         138.1713  143.1953  160.9363 N.1     1  UNL1       -0.1908
     27 C         138.6103  141.8072  161.2976 C.1     1  UNL1        0.1004
@<TRIPOS>BOND
     1    26    27    3
     2    27    20    1
     3    20    21   ar
     4    21    22   ar
     5    22    23   ar
     6    23    24   ar
     7    24    19    1
     8    19    18    1
     9    18     1    1
    10     1     2   ar
    11     2     3   ar
    12     3     4   ar
    13     7     4    1
    14     7     8    1
    15     8     9    1
    16     9    10    1
    17    10    13    1
    18    13    14   am
    19    13    15    2
    20    10    11    1
    21     4     5   ar
    22     5     6   ar
    23    24    25   ar
    24    25    20   ar
    25     6     1   ar
    26    11     7    1
    27    14    16    1
    28    14    17    1
    29    11    12    1
@<TRIPOS>MOLECULE
*****
 27 29 0 0 0
SMALL
GASTEIGER

@<TRIPOS>ATOM
      1 C         139.0288  138.7803  163.6603 C.ar    1  UNL1        0.1390
      2 C         139.9612  138.1601  164.6582 C.ar    1  UNL1        0.0366
      3 C         140.3554  138.9203  165.8897 C.ar    1  UNL1        0.0001
      4 C         139.8172  140.3008  166.1232 C.ar    1  UNL1       -0.0078
      5 C         138.8847  140.9210  165.1253 C.ar    1  UNL1        0.0001
      6 C         138.4905  140.1607  163.8939 C.ar    1  UNL1        0.0366
      7 C         140.2114  141.0611  167.3548 C.3     1  UNL1        0.0772
      8 C         140.3869  142.5474  167.4549 C.3     1  UNL1        0.0221
      9 C         140.7833  142.8735  168.8644 C.3     1  UNL1        0.0268
     10 C         140.8528  141.5886  169.6353 C.3     1  UNL1        0.1315
     11 N         140.4993  140.4685  168.7023 N.3     1  UNL1       -0.2890
     12 H         139.6748  139.9774  169.0478 H       1  UNL1        0.1239
     13 C         141.2126  141.4485  171.0848 C.2     1  UNL1        0.2336
     14 N         142.3740  140.5899  171.4897 N.am    1  UNL1       -0.3277
     15 O         140.4109  142.1669  172.1293 O.2     1  UNL1       -0.2739
     16 H         142.9001  140.1183  170.8041 H       1  UNL1        0.1450
     17 H         142.6101  140.4979  172.4410 H       1  UNL1        0.1450
     18 O         138.6346  138.0200  162.4287 O.3     1  UNL1       -0.4706
     19 C         139.4485  138.1485  161.1754 C.3     1  UNL1        0.2320
     20 C         142.5400  140.6351  161.0777 C.ar    1  UNL1        0.0682
     21 C         143.6691  139.6957  161.3820 C.ar    1  UNL1        0.0103
     22 C         143.3913  138.2405  161.6175 C.ar    1  UNL1        0.0005
     23 C         141.9845  137.7248  161.5486 C.ar    1  UNL1       -0.0006
     24 C         140.8554  138.6642  161.2443 C.ar    1  UNL1        0.0218
     25 C         141.1332  140.1193  161.0089 C.ar    1  UNL1        0.0096
     26 N         143.0955  143.5453  160.6069 N.1     1  UNL1       -0.1908
     27 C         142.8178  142.0902  160.8423 C.1     1  UNL1        0.1004
@<TRIPOS>BOND
     1    26    27    3
     2    27    20    1
     3    20    21   ar
     4    21    22   ar
     5    22    23   ar
     6    23    24   ar
     7    24    19    1
     8    19    18    1
     9    18     1    1
    10     1     2   ar
    11     2     3   ar
    12     3     4   ar
    13     7     4    1
    14     7     8    1
    15     8     9    1
    16     9    10    1
    17    10    13    1
    18    13    14   am
    19    13    15    2
    20    10    11    1
    21     4     5   ar
    22     5     6   ar
    23    24    25   ar
    24    25    20   ar
    25     6     1   ar
    26    11     7    1
    27    14    16    1
    28    14    17    1
    29    11    12    1
@<TRIPOS>MOLECULE
*****
 27 29 0 0 0
SMALL
GASTEIGER

@<TRIPOS>ATOM
      1 C         144.7088  141.7299  163.8189 C.ar    1  UNL1        0.1390
      2 C         144.1230  140.3956  164.1747 C.ar    1  UNL1        0.0366
      3 C         143.2519  140.2586  165.3881 C.ar    1  UNL1        0.0001
      4 C         142.9665  141.4558  166.2456 C.ar    1  UNL1       -0.0078
      5 C         143.5522  142.7900  165.8897 C.ar    1  UNL1        0.0001
      6 C         144.4234  142.9270  164.6764 C.ar    1  UNL1        0.0366
      7 C         142.0953  141.3187  167.4590 C.3     1  UNL1        0.0772
      8 C         141.3034  140.1040  167.8431 C.3     1  UNL1        0.0221
      9 C         140.5818  140.4067  169.1228 C.3     1  UNL1        0.0268
     10 C         140.9276  141.8085  169.5295 C.3     1  UNL1        0.1315
     11 N         141.8630  142.3721  168.5012 N.3     1  UNL1       -0.2890
     12 H         142.7480  142.6257  168.9403 H       1  UNL1        0.1239
     13 C         140.4260  142.5216  170.7502 C.2     1  UNL1        0.2336
     14 N         139.7390  143.8481  170.6147 N.am    1  UNL1       -0.3277
     15 O         140.6115  141.9080  172.1063 O.2     1  UNL1       -0.2739
     16 H         139.6173  144.2507  169.7246 H       1  UNL1        0.1450
     17 H         139.4099  144.3160  171.4159 H       1  UNL1        0.1450
     18 O         145.5800  141.8670  162.6054 O.3     1  UNL1       -0.4706
     19 C         145.0157  142.4359  161.3375 C.3     1  UNL1        0.2320
     20 C         141.2358  143.6005  161.0123 C.ar    1  UNL1        0.0682
     21 C         140.5786  142.3176  160.5972 C.ar    1  UNL1        0.0103
     22 C         141.4005  141.0742  160.4288 C.ar    1  UNL1        0.0005
     23 C         142.8795  141.1136  160.6755 C.ar    1  UNL1       -0.0006
     24 C         143.5366  142.3965  161.0907 C.ar    1  UNL1        0.0218
     25 C         142.7148  143.6399  161.2590 C.ar    1  UNL1        0.0096
     26 N         139.5920  146.0874  161.3490 N.1     1  UNL1       -0.1908
     27 C         140.4139  144.8439  161.1807 C.1     1  UNL1        0.1004
@<TRIPOS>BOND
     1    26    27    3
     2    27    20    1
     3    20    21   ar
     4    21    22   ar
     5    22    23   ar
     6    23    24   ar
     7    24    19    1
     8    19    18    1
     9    18     1    1
    10     1     2   ar
    11     2     3   ar
    12     3     4   ar
    13     7     4    1
    14     7     8    1
    15     8     9    1
    16     9    10    1
    17    10    13    1
    18    13    14   am
    19    13    15    2
    20    10    11    1
    21     4     5   ar
    22     5     6   ar
    23    24    25   ar
    24    25    20   ar
    25     6     1   ar
    26    11     7    1
    27    14    16    1
    28    14    17    1
    29    11    12    1
@<TRIPOS>MOLECULE
*****
 27 29 0 0 0
SMALL
GASTEIGER

@<TRIPOS>ATOM
      1 C         143.8423  142.0837  163.5806 C.ar    1  UNL1        0.1390
      2 C         143.8529  142.9605  164.7976 C.ar    1  UNL1        0.0366
      3 C         143.3787  142.4214  166.1145 C.ar    1  UNL1        0.0001
      4 C         142.8939  141.0054  166.2145 C.ar    1  UNL1       -0.0078
      5 C         142.8833  140.1286  164.9975 C.ar    1  UNL1        0.0001
      6 C         143.3575  140.6678  163.6806 C.ar    1  UNL1        0.0366
      7 C         142.4196  140.4662  167.5315 C.3     1  UNL1        0.0772
      8 C         142.9177  139.2224  168.2059 C.3     1  UNL1        0.0221
      9 C         142.1700  139.0636  169.4965 C.3     1  UNL1        0.0268
     10 C         141.2098  140.2095  169.6198 C.3     1  UNL1        0.1315
     11 N         141.3640  141.0763  168.4054 N.3     1  UNL1       -0.2890
     12 H         141.6462  142.0159  168.6844 H       1  UNL1        0.1239
     13 C         140.2617  140.4467  170.7577 C.2     1  UNL1        0.2336
     14 N         138.9233  139.7697  170.7724 N.am    1  UNL1       -0.3277
     15 O         140.6521  141.3610  171.8809 O.2     1  UNL1       -0.2739
     16 H         138.6670  139.1696  170.0352 H       1  UNL1        0.1450
     17 H         138.3010  139.9255  171.5193 H       1  UNL1        0.1450
     18 O         144.3166  142.6229  162.2636 O.3     1  UNL1       -0.4706
     19 C         143.3419  143.2643  161.3210 C.3     1  UNL1        0.2320
     20 C         139.4822  143.0722  162.2243 C.ar    1  UNL1        0.0682
     21 C         139.2513  144.4479  162.7756 C.ar    1  UNL1        0.0103
     22 C         140.3839  145.4291  162.8421 C.ar    1  UNL1        0.0005
     23 C         141.7475  145.0346  162.3572 C.ar    1  UNL1       -0.0006
     24 C         141.9783  143.6589  161.8059 C.ar    1  UNL1        0.0218
     25 C         140.8457  142.6777  161.7394 C.ar    1  UNL1        0.0096
     26 N         137.2170  141.1098  162.0913 N.1     1  UNL1       -0.1908
     27 C         138.3496  142.0910  162.1578 C.1     1  UNL1        0.1004
@<TRIPOS>BOND
     1    26    27    3
     2    27    20    1
     3    20    21   ar
     4    21    22   ar
     5    22    23   ar
     6    23    24   ar
     7    24    19    1
     8    19    18    1
     9    18     1    1
    10     1     2   ar
    11     2     3   ar
    12     3     4   ar
    13     7     4    1
    14     7     8    1
    15     8     9    1
    16     9    10    1
    17    10    13    1
    18    13    14   am
    19    13    15    2
    20    10    11    1
    21     4     5   ar
    22     5     6   ar
    23    24    25   ar
    24    25    20   ar
    25     6     1   ar
    26    11     7    1
    27    14    16    1
    28    14    17    1
    29    11    12    1
@<TRIPOS>MOLECULE
*****
 27 29 0 0 0
SMALL
GASTEIGER

@<TRIPOS>ATOM
      1 C         139.0141  142.7402  164.2545 C.ar    1  UNL1        0.1390
      2 C         138.7738  141.2782  164.4884 C.ar    1  UNL1        0.0366
      3 C         139.2450  140.6345  165.7587 C.ar    1  UNL1        0.0001
      4 C         139.9564  141.4529  166.7951 C.ar    1  UNL1       -0.0078
      5 C         140.1967  142.9149  166.5612 C.ar    1  UNL1        0.0001
      6 C         139.7255  143.5585  165.2909 C.ar    1  UNL1        0.0366
      7 C         140.4276  140.8092  168.0654 C.3     1  UNL1        0.0772
      8 C         139.6400  140.6856  169.3360 C.3     1  UNL1        0.0221
      9 C         140.4946  139.9761  170.3441 C.3     1  UNL1        0.0268
     10 C         141.8105  139.6611  169.6964 C.3     1  UNL1        0.1315
     11 N         141.7690  140.1760  168.2882 N.3     1  UNL1       -0.2890
     12 H         141.9008  139.4049  167.6336 H       1  UNL1        0.1239
     13 C         142.9651  138.9552  170.3434 C.2     1  UNL1        0.2336
     14 N         143.7998  139.6655  171.3676 N.am    1  UNL1       -0.3277
     15 O         143.2850  137.5392  169.9663 O.2     1  UNL1       -0.2739
     16 H         143.5898  140.5949  171.6151 H       1  UNL1        0.1450
     17 H         144.5575  139.2021  171.7923 H       1  UNL1        0.1450
     18 O         138.5429  143.3839  162.9842 O.3     1  UNL1       -0.4706
     19 C         139.3816  143.2974  161.7436 C.3     1  UNL1        0.2320
     20 C         142.9984  141.6641  161.7093 C.ar    1  UNL1        0.0682
     21 C         143.8468  142.8463  162.0735 C.ar    1  UNL1        0.0103
     22 C         143.2068  144.1789  162.3277 C.ar    1  UNL1        0.0005
     23 C         141.7184  144.3293  162.2178 C.ar    1  UNL1       -0.0006
     24 C         140.8701  143.1471  161.8536 C.ar    1  UNL1        0.0218
     25 C         141.5101  141.8145  161.5993 C.ar    1  UNL1        0.0096
     26 N         144.2785  138.9990  161.2007 N.1     1  UNL1       -0.1908
     27 C         143.6384  140.3316  161.4550 C.1     1  UNL1        0.1004
@<TRIPOS>BOND
     1    26    27    3
     2    27    20    1
     3    20    21   ar
     4    21    22   ar
     5    22    23   ar
     6    23    24   ar
     7    24    19    1
     8    19    18    1
     9    18     1    1
    10     1     2   ar
    11     2     3   ar
    12     3     4   ar
    13     7     4    1
    14     7     8    1
    15     8     9    1
    16     9    10    1
    17    10    13    1
    18    13    14   am
    19    13    15    2
    20    10    11    1
    21     4     5   ar
    22     5     6   ar
    23    24    25   ar
    24    25    20   ar
    25     6     1   ar
    26    11     7    1
    27    14    16    1
    28    14    17    1
    29    11    12    1
@<TRIPOS>MOLECULE
*****
 27 29 0 0 0
SMALL
GASTEIGER

@<TRIPOS>ATOM
      1 C         138.7325  143.0708  162.8305 C.ar    1  UNL1        0.1390
      2 C         139.9950  143.8385  163.0881 C.ar    1  UNL1        0.0366
      3 C         140.7158  143.6803  164.3940 C.ar    1  UNL1        0.0001
      4 C         140.1741  142.7542  165.4423 C.ar    1  UNL1       -0.0078
      5 C         138.9115  141.9864  165.1847 C.ar    1  UNL1        0.0001
      6 C         138.1907  142.1447  163.8788 C.ar    1  UNL1        0.0366
      7 C         140.8950  142.5959  166.7482 C.3     1  UNL1        0.0772
      8 C         142.3422  142.2402  166.9189 C.3     1  UNL1        0.0221
      9 C         142.6369  142.1900  168.3888 C.3     1  UNL1        0.0268
     10 C         141.3718  142.5148  169.1265 C.3     1  UNL1        0.1315
     11 N         140.2953  142.7656  168.1125 N.3     1  UNL1       -0.2890
     12 H         139.9357  143.7144  168.2170 H       1  UNL1        0.1239
     13 C         141.2114  142.5776  170.6166 C.2     1  UNL1        0.2336
     14 N         142.3919  142.3324  171.5090 N.am    1  UNL1       -0.3277
     15 O         139.8706  142.8857  171.2143 O.2     1  UNL1       -0.2739
     16 H         143.2719  142.1302  171.1167 H       1  UNL1        0.1450
     17 H         142.2867  142.3737  172.4870 H       1  UNL1        0.1450
     18 O         138.0116  143.2290  161.5246 O.3     1  UNL1       -0.4706
     19 C         138.3599  142.3453  160.3638 C.3     1  UNL1        0.2320
     20 C         140.9698  139.3673  160.6280 C.ar    1  UNL1        0.0682
     21 C         140.0805  138.2511  161.0895 C.ar    1  UNL1        0.0103
     22 C         138.6176  138.4995  161.3092 C.ar    1  UNL1        0.0005
     23 C         138.0441  139.8643  161.0673 C.ar    1  UNL1       -0.0006
     24 C         138.9334  140.9805  160.6057 C.ar    1  UNL1        0.0218
     25 C         140.3963  140.7320  160.3861 C.ar    1  UNL1        0.0096
     26 N         143.8956  138.8703  160.1887 N.1     1  UNL1       -0.1908
     27 C         142.4327  139.1188  160.4083 C.1     1  UNL1        0.1004
@<TRIPOS>BOND
     1    26    27    3
     2    27    20    1
     3    20    21   ar
     4    21    22   ar
     5    22    23   ar
     6    23    24   ar
     7    24    19    1
     8    19    18    1
     9    18     1    1
    10     1     2   ar
    11     2     3   ar
    12     3     4   ar
    13     7     4    1
    14     7     8    1
    15     8     9    1
    16     9    10    1
    17    10    13    1
    18    13    14   am
    19    13    15    2
    20    10    11    1
    21     4     5   ar
    22     5     6   ar
    23    24    25   ar
    24    25    20   ar
    25     6     1   ar
    26    11     7    1
    27    14    16    1
    28    14    17    1
    29    11    12    1
