@<TRIPOS>MOLECULE
*****
 28 31 0 0 0
SMALL
GASTEIGER

@<TRIPOS>ATOM
      1 C         141.4204  143.2598  169.7404 C.3     1  UNL1        0.0028
      2 C         140.8086  142.4993  168.6014 C.3     1  UNL1        0.0315
      3 C         140.7454  142.9511  167.1724 C.3     1  UNL1        0.0032
      4 C         140.0505  141.8845  166.3793 C.3     1  UNL1        0.0067
      5 C         139.7038  141.7813  164.9235 C.3     1  UNL1        0.0190
      6 C         140.0702  142.8924  163.9848 C.3     1  UNL1        0.0084
      7 C         139.7236  142.7893  162.5291 C.3     1  UNL1        0.0230
      8 C         139.0106  141.5751  162.0120 C.2     1  UNL1       -0.0345
      9 C         138.6640  141.4720  160.5563 C.2     1  UNL1        0.0341
     10 C         137.9510  140.2578  160.0393 C.2     1  UNL1        0.1948
     11 O         137.6044  140.1546  158.5835 O.2     1  UNL1       -0.2866
     12 C         137.5847  139.1467  160.9780 C.2     1  UNL1        0.0380
     13 C         137.9313  139.2497  162.4337 C.2     1  UNL1       -0.0160
     14 C         138.6442  140.4640  162.9507 C.3     1  UNL1        0.0486
     15 C         138.2779  139.3528  163.8895 C.3     1  UNL1        0.0125
     16 C         138.9909  140.5671  164.4065 C.2     1  UNL1       -0.0422
     17 C         138.6245  139.4560  165.3453 C.2     1  UNL1       -0.0339
     18 C         138.9711  139.5591  166.8010 C.3     1  UNL1        0.0281
     19 C         139.6841  140.7733  167.3181 C.3     1  UNL1        0.0333
     20 C         139.3071  139.6490  168.2367 C.3     1  UNL1        0.0031
     21 C         140.1527  141.1533  168.6913 C.3     1  UNL1        0.1415
     22 O         139.6235  139.8684  169.2561 O.3     1  UNL1       -0.3797
     23 H         139.2181  139.3460  168.5464 H       1  UNL1        0.2108
     24 C         140.4993  141.2565  170.1471 C.2     1  UNL1        0.2038
     25 O         139.5752  141.9691  171.0895 O.2     1  UNL1       -0.2910
     26 C         141.7701  140.6469  170.6605 C.3     1  UNL1        0.2044
     27 O         142.0835  140.6896  172.1267 O.3     1  UNL1       -0.3749
     28 H         142.2224  141.6095  172.4010 H       1  UNL1        0.2110
@<TRIPOS>BOND
     1     2     1    1
     2     2     3    1
     3     4     3    1
     4     4     5    1
     5     5     6    1
     6     6     7    1
     7     7     8    1
     8     8     9    2
     9     9    10    1
    10    10    11    2
    11    10    12    1
    12    12    13    2
    13    13    14    1
    14    14    15    1
    15    14    16    1
    16    16    17    2
    17    17    18    1
    18    18    19    1
    19    19    20    1
    20    19    21    1
    21    21    22    1
    22    21    24    1
    23    24    25    2
    24    24    26    1
    25    26    27    1
    26    21     2    1
    27    19     4    1
    28    16     5    1
    29    14     8    1
    30    22    23    1
    31    27    28    1
@<TRIPOS>MOLECULE
*****
 28 31 0 0 0
SMALL
GASTEIGER

@<TRIPOS>ATOM
      1 C         138.3992  140.3935  169.9871 C.3     1  UNL1        0.0028
      2 C         139.3751  140.1018  168.8860 C.3     1  UNL1        0.0315
      3 C         139.0280  139.7751  167.4638 C.3     1  UNL1        0.0032
      4 C         140.3078  139.5569  166.7126 C.3     1  UNL1        0.0067
      5 C         140.5839  139.2082  165.2800 C.3     1  UNL1        0.0190
      6 C         139.4457  139.0164  164.3220 C.3     1  UNL1        0.0084
      7 C         139.7218  138.6678  162.8895 C.3     1  UNL1        0.0230
      8 C         141.1361  138.5110  162.4149 C.2     1  UNL1       -0.0345
      9 C         141.4122  138.1624  160.9823 C.2     1  UNL1        0.0341
     10 C         142.8264  138.0056  160.5078 C.2     1  UNL1        0.1948
     11 O         143.1026  137.6570  159.0752 O.2     1  UNL1       -0.2866
     12 C         143.9646  138.1975  161.4658 C.2     1  UNL1        0.0380
     13 C         143.6886  138.5461  162.8983 C.2     1  UNL1       -0.0160
     14 C         142.2743  138.7028  163.3729 C.3     1  UNL1        0.0486
     15 C         143.4125  138.8947  164.3308 C.3     1  UNL1        0.0125
     16 C         141.9982  139.0515  164.8055 C.2     1  UNL1       -0.0422
     17 C         143.1364  139.2433  165.7634 C.2     1  UNL1       -0.0339
     18 C         142.8603  139.5919  167.1960 C.3     1  UNL1        0.0281
     19 C         141.4460  139.7487  167.6706 C.3     1  UNL1        0.0333
     20 C         142.6011  139.9354  168.6092 C.3     1  UNL1        0.0031
     21 C         140.8696  140.0855  169.0138 C.3     1  UNL1        0.1415
     22 O         142.2433  140.1836  169.6080 O.3     1  UNL1       -0.3797
     23 H         142.9056  140.0005  168.9234 H       1  UNL1        0.2108
     24 C         140.5934  140.4341  170.4464 C.2     1  UNL1        0.2038
     25 O         140.0277  139.4002  171.3742 O.2     1  UNL1       -0.2910
     26 C         140.8830  141.8166  170.9510 C.3     1  UNL1        0.2044
     27 O         141.9998  142.0401  171.9272 O.3     1  UNL1       -0.3749
     28 H         141.7881  141.6020  172.7664 H       1  UNL1        0.2110
@<TRIPOS>BOND
     1     2     1    1
     2     2     3    1
     3     4     3    1
     4     4     5    1
     5     5     6    1
     6     6     7    1
     7     7     8    1
     8     8     9    2
     9     9    10    1
    10    10    11    2
    11    10    12    1
    12    12    13    2
    13    13    14    1
    14    14    15    1
    15    14    16    1
    16    16    17    2
    17    17    18    1
    18    18    19    1
    19    19    20    1
    20    19    21    1
    21    21    22    1
    22    21    24    1
    23    24    25    2
    24    24    26    1
    25    26    27    1
    26    21     2    1
    27    19     4    1
    28    16     5    1
    29    14     8    1
    30    22    23    1
    31    27    28    1
@<TRIPOS>MOLECULE
*****
 28 31 0 0 0
SMALL
GASTEIGER

@<TRIPOS>ATOM
      1 C         141.5143  143.2698  169.8868 C.3     1  UNL1        0.0028
      2 C         140.9613  142.4170  168.7836 C.3     1  UNL1        0.0315
      3 C         141.1894  142.6183  167.3148 C.3     1  UNL1        0.0032
      4 C         140.4523  141.5388  166.5791 C.3     1  UNL1        0.0067
      5 C         140.3152  141.2344  165.1167 C.3     1  UNL1        0.0190
      6 C         140.9989  142.1029  164.1025 C.3     1  UNL1        0.0084
      7 C         140.8618  141.7985  162.6402 C.3     1  UNL1        0.0230
      8 C         140.0411  140.6257  162.1919 C.2     1  UNL1       -0.0345
      9 C         139.9041  140.3214  160.7295 C.2     1  UNL1        0.0341
     10 C         139.0834  139.1486  160.2812 C.2     1  UNL1        0.1948
     11 O         138.9463  138.8442  158.8188 O.2     1  UNL1       -0.2866
     12 C         138.3997  138.2801  161.2953 C.2     1  UNL1        0.0380
     13 C         138.5368  138.5845  162.7577 C.2     1  UNL1       -0.0160
     14 C         139.3575  139.7573  163.2060 C.3     1  UNL1        0.0486
     15 C         138.6738  138.8888  164.2201 C.3     1  UNL1        0.0125
     16 C         139.4945  140.0617  164.6684 C.2     1  UNL1       -0.0422
     17 C         138.8109  139.1932  165.6825 C.2     1  UNL1       -0.0339
     18 C         138.9479  139.4976  167.1449 C.3     1  UNL1        0.0281
     19 C         139.7686  140.6704  167.5932 C.3     1  UNL1        0.0333
     20 C         139.0753  139.7871  168.5878 C.3     1  UNL1        0.0031
     21 C         140.0832  141.2131  168.9556 C.3     1  UNL1        0.1415
     22 O         139.2678  140.1333  169.6030 O.3     1  UNL1       -0.3797
     23 H         138.8914  139.5580  168.9186 H       1  UNL1        0.2108
     24 C         140.2203  141.5175  170.4181 C.2     1  UNL1        0.2038
     25 O         139.2877  142.4938  171.0715 O.2     1  UNL1       -0.2910
     26 C         141.2900  140.8456  171.2269 C.3     1  UNL1        0.2044
     27 O         141.9590  139.6086  170.7054 O.3     1  UNL1       -0.3749
     28 H         141.3129  138.8866  170.6591 H       1  UNL1        0.2110
@<TRIPOS>BOND
     1     2     1    1
     2     2     3    1
     3     4     3    1
     4     4     5    1
     5     5     6    1
     6     6     7    1
     7     7     8    1
     8     8     9    2
     9     9    10    1
    10    10    11    2
    11    10    12    1
    12    12    13    2
    13    13    14    1
    14    14    15    1
    15    14    16    1
    16    16    17    2
    17    17    18    1
    18    18    19    1
    19    19    20    1
    20    19    21    1
    21    21    22    1
    22    21    24    1
    23    24    25    2
    24    24    26    1
    25    26    27    1
    26    21     2    1
    27    19     4    1
    28    16     5    1
    29    14     8    1
    30    22    23    1
    31    27    28    1
@<TRIPOS>MOLECULE
*****
 28 31 0 0 0
SMALL
GASTEIGER

@<TRIPOS>ATOM
      1 C         142.7502  143.2059  170.4638 C.3     1  UNL1        0.0028
      2 C         142.3691  142.3394  169.3003 C.3     1  UNL1        0.0315
      3 C         143.1799  142.1268  168.0563 C.3     1  UNL1        0.0032
      4 C         142.4221  141.1894  167.1637 C.3     1  UNL1        0.0067
      5 C         142.7316  140.6223  165.8099 C.3     1  UNL1        0.0190
      6 C         144.0108  140.9890  165.1177 C.3     1  UNL1        0.0084
      7 C         144.3203  140.4220  163.7640 C.3     1  UNL1        0.0230
      8 C         143.3506  139.4881  163.1024 C.2     1  UNL1       -0.0345
      9 C         143.6601  138.9211  161.7486 C.2     1  UNL1        0.0341
     10 C         142.6904  137.9873  161.0871 C.2     1  UNL1        0.1948
     11 O         142.9999  137.4202  159.7333 O.2     1  UNL1       -0.2866
     12 C         141.4112  137.6205  161.7793 C.2     1  UNL1        0.0380
     13 C         141.1017  138.1875  163.1331 C.2     1  UNL1       -0.0160
     14 C         142.0714  139.1214  163.7946 C.3     1  UNL1        0.0486
     15 C         140.7922  138.7546  164.4868 C.3     1  UNL1        0.0125
     16 C         141.7619  139.6884  165.1484 C.2     1  UNL1       -0.0422
     17 C         140.4827  139.3217  165.8406 C.2     1  UNL1       -0.0339
     18 C         140.1732  139.8887  167.1943 C.3     1  UNL1        0.0281
     19 C         141.1429  140.8226  167.8559 C.3     1  UNL1        0.0333
     20 C         139.8572  140.4407  168.5276 C.3     1  UNL1        0.0031
     21 C         141.1102  141.5333  169.1763 C.3     1  UNL1        0.1415
     22 O         139.7754  140.9292  169.4982 O.3     1  UNL1       -0.3797
     23 H         139.4935  140.3592  168.7658 H       1  UNL1        0.2108
     24 C         140.8007  142.1004  170.5301 C.2     1  UNL1        0.2038
     25 O         141.3558  141.4479  171.7614 O.2     1  UNL1       -0.2910
     26 C         139.9360  143.3200  170.6526 C.3     1  UNL1        0.2044
     27 O         138.6748  143.2669  171.4627 O.3     1  UNL1       -0.3749
     28 H         138.0444  142.6628  171.0403 H       1  UNL1        0.2110
@<TRIPOS>BOND
     1     2     1    1
     2     2     3    1
     3     4     3    1
     4     4     5    1
     5     5     6    1
     6     6     7    1
     7     7     8    1
     8     8     9    2
     9     9    10    1
    10    10    11    2
    11    10    12    1
    12    12    13    2
    13    13    14    1
    14    14    15    1
    15    14    16    1
    16    16    17    2
    17    17    18    1
    18    18    19    1
    19    19    20    1
    20    19    21    1
    21    21    22    1
    22    21    24    1
    23    24    25    2
    24    24    26    1
    25    26    27    1
    26    21     2    1
    27    19     4    1
    28    16     5    1
    29    14     8    1
    30    22    23    1
    31    27    28    1
@<TRIPOS>MOLECULE
*****
 28 31 0 0 0
SMALL
GASTEIGER

@<TRIPOS>ATOM
      1 C         139.0652  141.3856  159.9274 C.3     1  UNL1        0.0028
      2 C         139.1060  141.0355  161.3854 C.3     1  UNL1        0.0315
      3 C         139.5189  141.9498  162.5006 C.3     1  UNL1        0.0032
      4 C         139.4092  141.1889  163.7885 C.3     1  UNL1        0.0067
      5 C         139.6849  141.5779  165.2108 C.3     1  UNL1        0.0190
      6 C         140.1655  142.9625  165.5299 C.3     1  UNL1        0.0084
      7 C         140.4412  143.3516  166.9520 C.3     1  UNL1        0.0230
      8 C         140.2362  142.3560  168.0552 C.2     1  UNL1       -0.0345
      9 C         140.5119  142.7451  169.4774 C.2     1  UNL1        0.0341
     10 C         140.3069  141.7495  170.5804 C.2     1  UNL1        0.1948
     11 O         140.5826  142.1385  172.0027 O.2     1  UNL1       -0.2866
     12 C         139.8263  140.3649  170.2613 C.2     1  UNL1        0.0380
     13 C         139.5506  139.9758  168.8391 C.2     1  UNL1       -0.0160
     14 C         139.7556  140.9714  167.7361 C.3     1  UNL1        0.0486
     15 C         139.2749  139.5868  167.4170 C.3     1  UNL1        0.0125
     16 C         139.4799  140.5824  166.3138 C.2     1  UNL1       -0.0422
     17 C         138.9992  139.1978  165.9947 C.2     1  UNL1       -0.0339
     18 C         138.7236  138.8087  164.5726 C.3     1  UNL1        0.0281
     19 C         138.9285  139.8043  163.4694 C.3     1  UNL1        0.0333
     20 C         138.4487  138.4137  163.1759 C.3     1  UNL1        0.0031
     21 C         138.7412  139.7095  161.9843 C.3     1  UNL1        0.1415
     22 O         138.2935  138.2829  162.1053 O.3     1  UNL1       -0.3797
     23 H         138.3064  138.0181  163.0383 H       1  UNL1        0.2108
     24 C         138.4655  139.3204  160.5620 C.2     1  UNL1        0.2038
     25 O         137.1246  139.6051  159.9530 O.2     1  UNL1       -0.2910
     26 C         139.5308  138.6468  159.7488 C.3     1  UNL1        0.2044
     27 O         140.8536  138.3146  160.3733 O.3     1  UNL1       -0.3749
     28 H         141.3182  139.1348  160.6019 H       1  UNL1        0.2110
@<TRIPOS>BOND
     1     2     1    1
     2     2     3    1
     3     4     3    1
     4     4     5    1
     5     5     6    1
     6     6     7    1
     7     7     8    1
     8     8     9    2
     9     9    10    1
    10    10    11    2
    11    10    12    1
    12    12    13    2
    13    13    14    1
    14    14    15    1
    15    14    16    1
    16    16    17    2
    17    17    18    1
    18    18    19    1
    19    19    20    1
    20    19    21    1
    21    21    22    1
    22    21    24    1
    23    24    25    2
    24    24    26    1
    25    26    27    1
    26    21     2    1
    27    19     4    1
    28    16     5    1
    29    14     8    1
    30    22    23    1
    31    27    28    1
@<TRIPOS>MOLECULE
*****
 28 31 0 0 0
SMALL
GASTEIGER

@<TRIPOS>ATOM
      1 C         142.5435  138.7616  169.9649 C.3     1  UNL1        0.0028
      2 C         142.2317  139.7222  168.8558 C.3     1  UNL1        0.0315
      3 C         142.8196  139.6967  167.4761 C.3     1  UNL1        0.0032
      4 C         142.2287  140.8356  166.6993 C.3     1  UNL1        0.0067
      5 C         142.4353  141.3027  165.2889 C.3     1  UNL1        0.0190
      6 C         143.3884  140.5732  164.3892 C.3     1  UNL1        0.0084
      7 C         143.5950  141.0403  162.9789 C.3     1  UNL1        0.0230
      8 C         142.8485  142.2370  162.4681 C.2     1  UNL1       -0.0345
      9 C         143.0551  142.7041  161.0578 C.2     1  UNL1        0.0341
     10 C         142.3086  143.9007  160.5471 C.2     1  UNL1        0.1948
     11 O         142.5152  144.3678  159.1367 O.2     1  UNL1       -0.2866
     12 C         141.3555  144.6302  161.4468 C.2     1  UNL1        0.0380
     13 C         141.1489  144.1631  162.8571 C.2     1  UNL1       -0.0160
     14 C         141.8954  142.9665  163.3678 C.3     1  UNL1        0.0486
     15 C         140.9423  143.6960  164.2674 C.3     1  UNL1        0.0125
     16 C         141.6888  142.4993  164.7782 C.2     1  UNL1       -0.0422
     17 C         140.7357  143.2288  165.6778 C.2     1  UNL1       -0.0339
     18 C         140.5290  142.7617  167.0882 C.3     1  UNL1        0.0281
     19 C         141.2755  141.5651  167.5989 C.3     1  UNL1        0.0333
     20 C         140.3171  142.3113  168.4790 C.3     1  UNL1        0.0031
     21 C         141.2775  140.8770  168.9317 C.3     1  UNL1        0.1415
     22 O         140.2748  141.8555  169.4678 O.3     1  UNL1       -0.3797
     23 H         140.0469  142.4964  168.7764 H       1  UNL1        0.2108
     24 C         141.0709  140.4098  170.3421 C.2     1  UNL1        0.2038
     25 O         139.9415  139.4772  170.6654 O.2     1  UNL1       -0.2910
     26 C         141.9937  140.8754  171.4291 C.3     1  UNL1        0.2044
     27 O         142.0210  142.3231  171.8209 O.3     1  UNL1       -0.3749
     28 H         142.3610  142.8516  171.0819 H       1  UNL1        0.2110
@<TRIPOS>BOND
     1     2     1    1
     2     2     3    1
     3     4     3    1
     4     4     5    1
     5     5     6    1
     6     6     7    1
     7     7     8    1
     8     8     9    2
     9     9    10    1
    10    10    11    2
    11    10    12    1
    12    12    13    2
    13    13    14    1
    14    14    15    1
    15    14    16    1
    16    16    17    2
    17    17    18    1
    18    18    19    1
    19    19    20    1
    20    19    21    1
    21    21    22    1
    22    21    24    1
    23    24    25    2
    24    24    26    1
    25    26    27    1
    26    21     2    1
    27    19     4    1
    28    16     5    1
    29    14     8    1
    30    22    23    1
    31    27    28    1
@<TRIPOS>MOLECULE
*****
 28 31 0 0 0
SMALL
GASTEIGER

@<TRIPOS>ATOM
      1 C         144.0360  142.1059  170.0449 C.3     1  UNL1        0.0028
      2 C         143.0197  141.8972  168.9617 C.3     1  UNL1        0.0315
      3 C         143.0355  142.5332  167.6033 C.3     1  UNL1        0.0032
      4 C         141.8347  142.0449  166.8487 C.3     1  UNL1        0.0067
      5 C         141.3335  142.3331  165.4646 C.3     1  UNL1        0.0190
      6 C         142.0916  143.2709  164.5725 C.3     1  UNL1        0.0084
      7 C         141.5905  143.5591  163.1884 C.3     1  UNL1        0.0230
      8 C         140.3312  142.9094  162.6963 C.2     1  UNL1       -0.0345
      9 C         139.8301  143.1975  161.3122 C.2     1  UNL1        0.0341
     10 C         138.5709  142.5479  160.8201 C.2     1  UNL1        0.1948
     11 O         138.0697  142.8360  159.4359 O.2     1  UNL1       -0.2866
     12 C         137.8127  141.6100  161.7121 C.2     1  UNL1        0.0380
     13 C         138.3139  141.3218  163.0962 C.2     1  UNL1       -0.0160
     14 C         139.5731  141.9715  163.5883 C.3     1  UNL1        0.0486
     15 C         138.8150  141.0337  164.4803 C.3     1  UNL1        0.0125
     16 C         140.0743  141.6834  164.9725 C.2     1  UNL1       -0.0422
     17 C         139.3162  140.7455  165.8645 C.2     1  UNL1       -0.0339
     18 C         139.8173  140.4574  167.2486 C.3     1  UNL1        0.0281
     19 C         141.0766  141.1071  167.7408 C.3     1  UNL1        0.0333
     20 C         140.3008  140.1657  168.6137 C.3     1  UNL1        0.0031
     21 C         141.8089  141.0158  169.0466 C.3     1  UNL1        0.1415
     22 O         140.7868  140.0579  169.5830 O.3     1  UNL1       -0.3797
     23 H         140.1090  139.8968  168.9080 H       1  UNL1        0.2108
     24 C         142.3101  140.7276  170.4307 C.2     1  UNL1        0.2038
     25 O         143.2137  139.5550  170.6722 O.2     1  UNL1       -0.2910
     26 C         141.9077  141.6122  171.5734 C.3     1  UNL1        0.2044
     27 O         140.4916  142.0939  171.6863 O.3     1  UNL1       -0.3749
     28 H         140.2913  142.6858  170.9444 H       1  UNL1        0.2110
@<TRIPOS>BOND
     1     2     1    1
     2     2     3    1
     3     4     3    1
     4     4     5    1
     5     5     6    1
     6     6     7    1
     7     7     8    1
     8     8     9    2
     9     9    10    1
    10    10    11    2
    11    10    12    1
    12    12    13    2
    13    13    14    1
    14    14    15    1
    15    14    16    1
    16    16    17    2
    17    17    18    1
    18    18    19    1
    19    19    20    1
    20    19    21    1
    21    21    22    1
    22    21    24    1
    23    24    25    2
    24    24    26    1
    25    26    27    1
    26    21     2    1
    27    19     4    1
    28    16     5    1
    29    14     8    1
    30    22    23    1
    31    27    28    1
@<TRIPOS>MOLECULE
*****
 28 31 0 0 0
SMALL
GASTEIGER

@<TRIPOS>ATOM
      1 C         140.3380  143.3947  169.7078 C.3     1  UNL1        0.0028
      2 C         140.9279  142.5085  168.6511 C.3     1  UNL1        0.0315
      3 C         140.8576  142.7354  167.1700 C.3     1  UNL1        0.0032
      4 C         141.5779  141.6070  166.4935 C.3     1  UNL1        0.0067
      5 C         141.8310  141.3016  165.0468 C.3     1  UNL1        0.0190
      6 C         141.3155  142.2260  163.9839 C.3     1  UNL1        0.0084
      7 C         141.5686  141.9207  162.5373 C.3     1  UNL1        0.0230
      8 C         142.3372  140.6910  162.1536 C.2     1  UNL1       -0.0345
      9 C         142.5903  140.3857  160.7070 C.2     1  UNL1        0.0341
     10 C         143.3589  139.1561  160.3233 C.2     1  UNL1        0.1948
     11 O         143.6120  138.8507  158.8767 O.2     1  UNL1       -0.2866
     12 C         143.8743  138.2317  161.3863 C.2     1  UNL1        0.0380
     13 C         143.6212  138.5370  162.8329 C.2     1  UNL1       -0.0160
     14 C         142.8527  139.7666  163.2165 C.3     1  UNL1        0.0486
     15 C         143.3682  138.8423  164.2795 C.3     1  UNL1        0.0125
     16 C         142.5996  140.0720  164.6632 C.2     1  UNL1       -0.0422
     17 C         143.1150  139.1476  165.7261 C.2     1  UNL1       -0.0339
     18 C         142.8619  139.4529  167.1727 C.3     1  UNL1        0.0281
     19 C         142.0933  140.6826  167.5564 C.3     1  UNL1        0.0333
     20 C         142.6191  139.7429  168.6007 C.3     1  UNL1        0.0031
     21 C         141.6916  141.2398  168.8898 C.3     1  UNL1        0.1415
     22 O         142.3570  140.0967  169.5975 O.3     1  UNL1       -0.3797
     23 H         142.7525  139.4984  168.9444 H       1  UNL1        0.2108
     24 C         141.4385  141.5451  170.3365 C.2     1  UNL1        0.2038
     25 O         142.3438  142.4867  171.0739 O.2     1  UNL1       -0.2910
     26 C         140.2800  140.9089  171.0457 C.3     1  UNL1        0.2044
     27 O         140.1697  139.4144  171.1111 O.3     1  UNL1       -0.3749
     28 H         140.0275  139.0614  170.2188 H       1  UNL1        0.2110
@<TRIPOS>BOND
     1     2     1    1
     2     2     3    1
     3     4     3    1
     4     4     5    1
     5     5     6    1
     6     6     7    1
     7     7     8    1
     8     8     9    2
     9     9    10    1
    10    10    11    2
    11    10    12    1
    12    12    13    2
    13    13    14    1
    14    14    15    1
    15    14    16    1
    16    16    17    2
    17    17    18    1
    18    18    19    1
    19    19    20    1
    20    19    21    1
    21    21    22    1
    22    21    24    1
    23    24    25    2
    24    24    26    1
    25    26    27    1
    26    21     2    1
    27    19     4    1
    28    16     5    1
    29    14     8    1
    30    22    23    1
    31    27    28    1
@<TRIPOS>MOLECULE
*****
 28 31 0 0 0
SMALL
GASTEIGER

@<TRIPOS>ATOM
      1 C         140.9908  138.5428  159.9422 C.3     1  UNL1        0.0028
      2 C         141.3825  138.7641  161.3732 C.3     1  UNL1        0.0315
      3 C         140.4452  139.0391  162.5115 C.3     1  UNL1        0.0032
      4 C         141.2636  139.1943  163.7588 C.3     1  UNL1        0.0067
      5 C         140.8813  139.4755  165.1818 C.3     1  UNL1        0.0190
      6 C         139.4380  139.6547  165.5491 C.3     1  UNL1        0.0084
      7 C         139.0557  139.9359  166.9720 C.3     1  UNL1        0.0230
      8 C         140.1165  140.0380  168.0276 C.2     1  UNL1       -0.0345
      9 C         139.7341  140.3193  169.4505 C.2     1  UNL1        0.0341
     10 C         140.7950  140.4214  170.5060 C.2     1  UNL1        0.1948
     11 O         140.4126  140.7026  171.9290 O.2     1  UNL1       -0.2866
     12 C         142.2382  140.2422  170.1386 C.2     1  UNL1        0.0380
     13 C         142.6206  139.9610  168.7157 C.2     1  UNL1       -0.0160
     14 C         141.5598  139.8589  167.6602 C.3     1  UNL1        0.0486
     15 C         143.0030  139.6798  167.2928 C.3     1  UNL1        0.0125
     16 C         141.9421  139.5776  166.2372 C.2     1  UNL1       -0.0422
     17 C         143.3854  139.3985  165.8699 C.2     1  UNL1       -0.0339
     18 C         143.7678  139.1173  164.4470 C.3     1  UNL1        0.0281
     19 C         142.7069  139.0152  163.3914 C.3     1  UNL1        0.0333
     20 C         144.1568  138.8399  163.0491 C.3     1  UNL1        0.0031
     21 C         142.7803  138.7493  161.9171 C.3     1  UNL1        0.1415
     22 O         144.2751  138.6427  161.9840 O.3     1  UNL1       -0.3797
     23 H         144.5684  138.7807  162.8982 H       1  UNL1        0.2108
     24 C         143.1627  138.4681  160.4941 C.2     1  UNL1        0.2038
     25 O         143.1300  137.0621  159.9726 O.2     1  UNL1       -0.2910
     26 C         143.5778  139.5929  159.5927 C.3     1  UNL1        0.2044
     27 O         143.9301  140.9296  160.1749 O.3     1  UNL1       -0.3749
     28 H         143.1407  141.3258  160.5759 H       1  UNL1        0.2110
@<TRIPOS>BOND
     1     2     1    1
     2     2     3    1
     3     4     3    1
     4     4     5    1
     5     5     6    1
     6     6     7    1
     7     7     8    1
     8     8     9    2
     9     9    10    1
    10    10    11    2
    11    10    12    1
    12    12    13    2
    13    13    14    1
    14    14    15    1
    15    14    16    1
    16    16    17    2
    17    17    18    1
    18    18    19    1
    19    19    20    1
    20    19    21    1
    21    21    22    1
    22    21    24    1
    23    24    25    2
    24    24    26    1
    25    26    27    1
    26    21     2    1
    27    19     4    1
    28    16     5    1
    29    14     8    1
    30    22    23    1
    31    27    28    1
