@<TRIPOS>MOLECULE
*****
 24 27 0 0 0
SMALL
GASTEIGER

@<TRIPOS>ATOM
      1 C         142.9496  138.5244  162.6321 C.3     1  UNL1        0.1118
      2 C         144.3408  139.0285  162.8780 C.3     1  UNL1        0.0261
      3 C         144.6797  139.6890  164.1813 C.3     1  UNL1        0.0068
      4 C         143.6275  139.8454  165.2388 C.3     1  UNL1        0.0277
      5 C         142.2363  139.3414  164.9930 C.2     1  UNL1       -0.0059
      6 C         141.8974  138.6809  163.6896 C.2     1  UNL1        0.0724
      7 N         140.4509  138.2858  163.7324 N.2     1  UNL1       -0.2523
      8 C         139.8959  138.7022  165.0623 C.2     1  UNL1        0.0628
      9 C         138.5284  138.5717  165.6646 C.3     1  UNL1        0.0726
     10 C         138.2642  139.0934  167.0459 C.2     1  UNL1       -0.0084
     11 C         139.3676  139.7458  167.8250 C.2     1  UNL1        0.0538
     12 CL        139.1035  140.2676  169.2063 Cl      1  UNL1       -0.0826
     13 C         140.7352  139.8764  167.2226 C.2     1  UNL1        0.0120
     14 C         140.9993  139.3546  165.8414 C.2     1  UNL1        0.0119
     15 O         142.2553  140.1958  160.2395 O.2     1  UNL1       -0.2685
     16 C         142.2634  138.6996  160.1324 C.2     1  UNL1        0.2638
     17 N         142.6106  137.8639  161.3287 N.am    1  UNL1       -0.2961
     18 H         142.6160  136.8819  161.2584 H       1  UNL1        0.1501
     19 C         141.9245  138.0391  158.8290 C.ar    1  UNL1        0.1345
     20 C         140.5685  138.2363  158.2186 C.ar    1  UNL1        0.0238
     21 C         140.2295  137.5758  156.9152 C.ar    1  UNL1        0.0033
     22 C         141.2464  136.7182  156.2222 C.ar    1  UNL1        0.0207
     23 C         142.6024  136.5210  156.8325 C.ar    1  UNL1        0.0990
     24 N         142.9414  137.1815  158.1360 N.ar    1  UNL1       -0.2393
@<TRIPOS>BOND
     1    15    16    2
     2    16    17   am
     3     1    17    1
     4     1     2    1
     5     2     3    1
     6     3     4    1
     7     4     5    1
     8     5     6    2
     9     6     7    1
    10     7     8    2
    11     8     9    1
    12     9    10    1
    13    10    11    2
    14    11    12    1
    15    11    13    1
    16    13    14    2
    17    16    19    1
    18    19    20   ar
    19    20    21   ar
    20    21    22   ar
    21    22    23   ar
    22    23    24   ar
    23     6     1    1
    24    14     8    1
    25    24    19   ar
    26    14     5    1
    27    17    18    1
@<TRIPOS>MOLECULE
*****
 24 27 0 0 0
SMALL
GASTEIGER

@<TRIPOS>ATOM
      1 C         139.3853  144.1463  161.9372 C.3     1  UNL1        0.1118
      2 C         139.4110  145.1727  163.0307 C.3     1  UNL1        0.0261
      3 C         139.2932  144.7451  164.4636 C.3     1  UNL1        0.0068
      4 C         139.1497  143.2910  164.8030 C.3     1  UNL1        0.0277
      5 C         139.1241  142.2646  163.7095 C.2     1  UNL1       -0.0059
      6 C         139.2419  142.6923  162.2766 C.2     1  UNL1        0.0724
      7 N         139.1854  141.4624  161.4196 N.2     1  UNL1       -0.2523
      8 C         139.0327  140.2747  162.3229 C.2     1  UNL1        0.0628
      9 C         138.9233  138.8058  162.0396 C.3     1  UNL1        0.0726
     10 C         138.7759  137.8326  163.1716 C.2     1  UNL1       -0.0084
     11 C         138.7380  138.3284  164.5868 C.2     1  UNL1        0.0538
     12 CL        138.5907  137.3552  165.7187 Cl      1  UNL1       -0.0826
     13 C         138.8475  139.7974  164.8700 C.2     1  UNL1        0.0120
     14 C         138.9948  140.7705  163.7381 C.2     1  UNL1        0.0119
     15 O         142.0891  144.6556  160.7413 O.2     1  UNL1       -0.2685
     16 C         140.8550  144.8286  159.9063 C.2     1  UNL1        0.2638
     17 N         139.5031  144.5740  160.5043 N.am    1  UNL1       -0.2961
     18 H         138.6932  144.6875  159.9562 H       1  UNL1        0.1501
     19 C         140.9729  145.2562  158.4734 C.ar    1  UNL1        0.1345
     20 C         142.1365  144.7955  157.6465 C.ar    1  UNL1        0.0238
     21 C         142.2544  145.2231  156.2136 C.ar    1  UNL1        0.0033
     22 C         141.2086  146.1114  155.6076 C.ar    1  UNL1        0.0207
     23 C         140.0450  146.5721  156.4344 C.ar    1  UNL1        0.0990
     24 N         139.9271  146.1445  157.8674 N.ar    1  UNL1       -0.2393
@<TRIPOS>BOND
     1    15    16    2
     2    16    17   am
     3     1    17    1
     4     1     2    1
     5     2     3    1
     6     3     4    1
     7     4     5    1
     8     5     6    2
     9     6     7    1
    10     7     8    2
    11     8     9    1
    12     9    10    1
    13    10    11    2
    14    11    12    1
    15    11    13    1
    16    13    14    2
    17    16    19    1
    18    19    20   ar
    19    20    21   ar
    20    21    22   ar
    21    22    23   ar
    22    23    24   ar
    23     6     1    1
    24    14     8    1
    25    24    19   ar
    26    14     5    1
    27    17    18    1
@<TRIPOS>MOLECULE
*****
 24 27 0 0 0
SMALL
GASTEIGER

@<TRIPOS>ATOM
      1 C         139.6691  140.2081  162.5876 C.3     1  UNL1        0.1118
      2 C         139.1781  138.8338  162.2408 C.3     1  UNL1        0.0261
      3 C         138.8214  137.8675  163.3311 C.3     1  UNL1        0.0068
      4 C         138.9555  138.2755  164.7683 C.3     1  UNL1        0.0277
      5 C         139.4465  139.6498  165.1151 C.2     1  UNL1       -0.0059
      6 C         139.8033  140.6161  164.0248 C.2     1  UNL1        0.0724
      7 N         140.2568  141.8934  164.6674 N.2     1  UNL1       -0.2523
      8 C         140.1803  141.7164  166.1549 C.2     1  UNL1        0.0628
      9 C         140.5020  142.6388  167.2932 C.3     1  UNL1        0.0726
     10 C         140.3228  142.1746  168.7084 C.2     1  UNL1       -0.0084
     11 C         139.8220  140.7880  168.9851 C.2     1  UNL1        0.0538
     12 CL        139.6429  140.3237  170.4002 Cl      1  UNL1       -0.0826
     13 C         139.5003  139.8656  167.8467 C.2     1  UNL1        0.0120
     14 C         139.6795  140.3298  166.4317 C.2     1  UNL1        0.0119
     15 O         137.6690  142.2520  161.6811 O.2     1  UNL1       -0.2685
     16 C         139.0259  142.1964  161.0439 C.2     1  UNL1        0.2638
     17 N         140.0259  141.1744  161.4972 N.am    1  UNL1       -0.2961
     18 H         140.9165  141.1379  161.0790 H       1  UNL1        0.1501
     19 C         139.3826  143.1627  159.9536 C.ar    1  UNL1        0.1345
     20 C         139.2251  142.7633  158.5162 C.ar    1  UNL1        0.0238
     21 C         139.5819  143.7296  157.4259 C.ar    1  UNL1        0.0033
     22 C         140.0961  145.0954  157.7728 C.ar    1  UNL1        0.0207
     23 C         140.2536  145.4948  159.2100 C.ar    1  UNL1        0.0990
     24 N         139.8969  144.5285  160.3004 N.ar    1  UNL1       -0.2393
@<TRIPOS>BOND
     1    15    16    2
     2    16    17   am
     3     1    17    1
     4     1     2    1
     5     2     3    1
     6     3     4    1
     7     4     5    1
     8     5     6    2
     9     6     7    1
    10     7     8    2
    11     8     9    1
    12     9    10    1
    13    10    11    2
    14    11    12    1
    15    11    13    1
    16    13    14    2
    17    16    19    1
    18    19    20   ar
    19    20    21   ar
    20    21    22   ar
    21    22    23   ar
    22    23    24   ar
    23     6     1    1
    24    14     8    1
    25    24    19   ar
    26    14     5    1
    27    17    18    1
@<TRIPOS>MOLECULE
*****
 24 27 0 0 0
SMALL
GASTEIGER

@<TRIPOS>ATOM
      1 C         142.7808  143.6761  162.4007 C.3     1  UNL1        0.1118
      2 C         143.9613  144.3053  163.0791 C.3     1  UNL1        0.0261
      3 C         144.1868  144.0884  164.5461 C.3     1  UNL1        0.0068
      4 C         143.2318  143.2421  165.3346 C.3     1  UNL1        0.0277
      5 C         142.0513  142.6128  164.6562 C.2     1  UNL1       -0.0059
      6 C         141.8258  142.8298  163.1892 C.2     1  UNL1        0.0724
      7 N         140.5834  142.0866  162.7963 N.2     1  UNL1       -0.2523
      8 C         140.0411  141.4104  164.0205 C.2     1  UNL1        0.0628
      9 C         138.8385  140.5405  164.2370 C.3     1  UNL1        0.0726
     10 C         138.5430  139.9957  165.6031 C.2     1  UNL1       -0.0084
     11 C         139.4502  140.3210  166.7525 C.2     1  UNL1        0.0538
     12 CL        139.1548  139.7763  168.1186 Cl      1  UNL1       -0.0826
     13 C         140.6529  141.1909  166.5359 C.2     1  UNL1        0.0120
     14 C         140.9483  141.7356  165.1699 C.2     1  UNL1        0.0119
     15 O         140.6018  145.5184  161.4745 O.2     1  UNL1       -0.2685
     16 C         141.4657  144.8142  160.4706 C.2     1  UNL1        0.2638
     17 N         142.5552  143.8930  160.9337 N.am    1  UNL1       -0.2961
     18 H         143.1222  143.4308  160.2748 H       1  UNL1        0.1501
     19 C         141.2401  145.0312  159.0036 C.ar    1  UNL1        0.1345
     20 C         140.0144  144.4735  158.3427 C.ar    1  UNL1        0.0238
     21 C         139.7888  144.6905  156.8757 C.ar    1  UNL1        0.0033
     22 C         140.7889  145.4651  156.0696 C.ar    1  UNL1        0.0207
     23 C         142.0145  146.0228  156.7305 C.ar    1  UNL1        0.0990
     24 N         142.2402  145.8058  158.1975 N.ar    1  UNL1       -0.2393
@<TRIPOS>BOND
     1    15    16    2
     2    16    17   am
     3     1    17    1
     4     1     2    1
     5     2     3    1
     6     3     4    1
     7     4     5    1
     8     5     6    2
     9     6     7    1
    10     7     8    2
    11     8     9    1
    12     9    10    1
    13    10    11    2
    14    11    12    1
    15    11    13    1
    16    13    14    2
    17    16    19    1
    18    19    20   ar
    19    20    21   ar
    20    21    22   ar
    21    22    23   ar
    22    23    24   ar
    23     6     1    1
    24    14     8    1
    25    24    19   ar
    26    14     5    1
    27    17    18    1
@<TRIPOS>MOLECULE
*****
 24 27 0 0 0
SMALL
GASTEIGER

@<TRIPOS>ATOM
      1 C         143.9393  142.5651  164.7463 C.3     1  UNL1        0.1118
      2 C         145.1562  141.9087  164.1648 C.3     1  UNL1        0.0261
      3 C         145.4242  141.9968  162.6916 C.3     1  UNL1        0.0068
      4 C         144.4753  142.7413  161.7999 C.3     1  UNL1        0.0277
      5 C         143.2584  143.3977  162.3813 C.2     1  UNL1       -0.0059
      6 C         142.9904  143.3096  163.8545 C.2     1  UNL1        0.0724
      7 N         141.7182  144.0517  164.1394 N.2     1  UNL1       -0.2523
      8 C         141.2001  144.5983  162.8423 C.2     1  UNL1        0.0628
      9 C         139.9845  145.4119  162.5101 C.3     1  UNL1        0.0726
     10 C         139.7207  145.8214  161.0913 C.2     1  UNL1       -0.0084
     11 C         140.6726  145.4173  160.0048 C.2     1  UNL1        0.0538
     12 CL        140.4088  145.8267  158.5860 Cl      1  UNL1       -0.0826
     13 C         141.8882  144.6036  160.3370 C.2     1  UNL1        0.0120
     14 C         142.1519  144.1942  161.7557 C.2     1  UNL1        0.0119
     15 O         142.1442  140.4137  165.8182 O.2     1  UNL1       -0.2685
     16 C         142.7736  141.4013  166.7555 C.2     1  UNL1        0.2638
     17 N         143.6712  142.4770  166.2195 N.am    1  UNL1       -0.2961
     18 H         144.0843  143.1252  166.8347 H       1  UNL1        0.1501
     19 C         142.5056  141.3132  168.2287 C.ar    1  UNL1        0.1345
     20 C         142.1603  139.9925  168.8505 C.ar    1  UNL1        0.0238
     21 C         141.8922  139.9044  170.3237 C.ar    1  UNL1        0.0033
     22 C         141.9693  141.1369  171.1751 C.ar    1  UNL1        0.0207
     23 C         142.3146  142.4576  170.5534 C.ar    1  UNL1        0.0990
     24 N         142.5827  142.5457  169.0801 N.ar    1  UNL1       -0.2393
@<TRIPOS>BOND
     1    15    16    2
     2    16    17   am
     3     1    17    1
     4     1     2    1
     5     2     3    1
     6     3     4    1
     7     4     5    1
     8     5     6    2
     9     6     7    1
    10     7     8    2
    11     8     9    1
    12     9    10    1
    13    10    11    2
    14    11    12    1
    15    11    13    1
    16    13    14    2
    17    16    19    1
    18    19    20   ar
    19    20    21   ar
    20    21    22   ar
    21    22    23   ar
    22    23    24   ar
    23     6     1    1
    24    14     8    1
    25    24    19   ar
    26    14     5    1
    27    17    18    1
@<TRIPOS>MOLECULE
*****
 24 27 0 0 0
SMALL
GASTEIGER

@<TRIPOS>ATOM
      1 C         139.9417  143.7906  162.8944 C.3     1  UNL1        0.1118
      2 C         139.0636  144.7743  163.6092 C.3     1  UNL1        0.0261
      3 C         138.8889  144.6816  165.0961 C.3     1  UNL1        0.0068
      4 C         139.5925  143.6050  165.8682 C.3     1  UNL1        0.0277
      5 C         140.4706  142.6213  165.1534 C.2     1  UNL1       -0.0059
      6 C         140.6452  142.7140  163.6665 C.2     1  UNL1        0.0724
      7 N         141.5677  141.6113  163.2384 N.2     1  UNL1       -0.2523
      8 C         141.9632  140.8371  164.4607 C.2     1  UNL1        0.0628
      9 C         142.8531  139.6444  164.6490 C.3     1  UNL1        0.0726
     10 C         143.0651  139.0758  166.0209 C.2     1  UNL1       -0.0084
     11 C         142.3870  139.7000  167.2044 C.2     1  UNL1        0.0538
     12 CL        142.5989  139.1315  168.5762 Cl      1  UNL1       -0.0826
     13 C         141.4970  140.8928  167.0161 C.2     1  UNL1        0.0120
     14 C         141.2852  141.4613  165.6443 C.2     1  UNL1        0.0119
     15 O         142.5393  144.7577  161.7467 O.2     1  UNL1       -0.2685
     16 C         141.4152  144.3668  160.8336 C.2     1  UNL1        0.2638
     17 N         140.1164  143.8833  161.4075 N.am    1  UNL1       -0.2961
     18 H         139.3786  143.6268  160.8082 H       1  UNL1        0.1501
     19 C         141.5899  144.4596  159.3467 C.ar    1  UNL1        0.1345
     20 C         141.5055  143.2222  158.5030 C.ar    1  UNL1        0.0238
     21 C         141.6802  143.3149  157.0161 C.ar    1  UNL1        0.0033
     22 C         141.9393  144.6450  156.3729 C.ar    1  UNL1        0.0207
     23 C         142.0236  145.8824  157.2165 C.ar    1  UNL1        0.0990
     24 N         141.8489  145.7897  158.7035 N.ar    1  UNL1       -0.2393
@<TRIPOS>BOND
     1    15    16    2
     2    16    17   am
     3     1    17    1
     4     1     2    1
     5     2     3    1
     6     3     4    1
     7     4     5    1
     8     5     6    2
     9     6     7    1
    10     7     8    2
    11     8     9    1
    12     9    10    1
    13    10    11    2
    14    11    12    1
    15    11    13    1
    16    13    14    2
    17    16    19    1
    18    19    20   ar
    19    20    21   ar
    20    21    22   ar
    21    22    23   ar
    22    23    24   ar
    23     6     1    1
    24    14     8    1
    25    24    19   ar
    26    14     5    1
    27    17    18    1
@<TRIPOS>MOLECULE
*****
 24 27 0 0 0
SMALL
GASTEIGER

@<TRIPOS>ATOM
      1 C         143.0403  140.9539  162.8320 C.3     1  UNL1        0.1118
      2 C         144.3301  140.2287  162.5863 C.3     1  UNL1        0.0261
      3 C         144.9680  139.4380  163.6898 C.3     1  UNL1        0.0068
      4 C         144.3160  139.3725  165.0392 C.3     1  UNL1        0.0277
      5 C         143.0262  140.0976  165.2849 C.2     1  UNL1       -0.0059
      6 C         142.3883  140.8883  164.1814 C.2     1  UNL1        0.0724
      7 N         141.1249  141.4949  164.7161 N.2     1  UNL1       -0.2523
      8 C         140.9820  141.0791  166.1502 C.2     1  UNL1        0.0628
      9 C         139.9337  141.3752  167.1814 C.3     1  UNL1        0.0726
     10 C         140.0604  140.8077  168.5642 C.2     1  UNL1       -0.0084
     11 C         141.2355  139.9441  168.9157 C.2     1  UNL1        0.0538
     12 CL        141.3622  139.3767  170.2985 Cl      1  UNL1       -0.0826
     13 C         142.2838  139.6480  167.8845 C.2     1  UNL1        0.0120
     14 C         142.1570  140.2155  166.5017 C.2     1  UNL1        0.0119
     15 O         143.9639  143.7510  162.2635 O.2     1  UNL1       -0.2685
     16 C         142.8641  143.1432  161.4442 C.2     1  UNL1        0.2638
     17 N         142.4023  141.7446  161.7285 N.am    1  UNL1       -0.2961
     18 H         141.6806  141.3457  161.1907 H       1  UNL1        0.1501
     19 C         142.2263  143.9339  160.3407 C.ar    1  UNL1        0.1345
     20 C         140.9666  144.7053  160.6021 C.ar    1  UNL1        0.0238
     21 C         140.3287  145.4960  159.4986 C.ar    1  UNL1        0.0033
     22 C         140.9505  145.5155  158.1336 C.ar    1  UNL1        0.0207
     23 C         142.2101  144.7441  157.8722 C.ar    1  UNL1        0.0990
     24 N         142.8480  143.9533  158.9758 N.ar    1  UNL1       -0.2393
@<TRIPOS>BOND
     1    15    16    2
     2    16    17   am
     3     1    17    1
     4     1     2    1
     5     2     3    1
     6     3     4    1
     7     4     5    1
     8     5     6    2
     9     6     7    1
    10     7     8    2
    11     8     9    1
    12     9    10    1
    13    10    11    2
    14    11    12    1
    15    11    13    1
    16    13    14    2
    17    16    19    1
    18    19    20   ar
    19    20    21   ar
    20    21    22   ar
    21    22    23   ar
    22    23    24   ar
    23     6     1    1
    24    14     8    1
    25    24    19   ar
    26    14     5    1
    27    17    18    1
@<TRIPOS>MOLECULE
*****
 24 27 0 0 0
SMALL
GASTEIGER

@<TRIPOS>ATOM
      1 C         143.2017  141.7694  163.2139 C.3     1  UNL1        0.1118
      2 C         144.3271  142.6627  163.6443 C.3     1  UNL1        0.0261
      3 C         144.4606  143.0598  165.0846 C.3     1  UNL1        0.0068
      4 C         143.4686  142.5637  166.0944 C.3     1  UNL1        0.0277
      5 C         142.3431  141.6704  165.6640 C.2     1  UNL1       -0.0059
      6 C         142.2097  141.2732  164.2237 C.2     1  UNL1        0.0724
      7 N         141.0057  140.3875  164.0967 N.2     1  UNL1       -0.2523
      8 C         140.3951  140.2373  165.4586 C.2     1  UNL1        0.0628
      9 C         139.1933  139.4809  165.9418 C.3     1  UNL1        0.0726
     10 C         138.8179  139.5174  167.3937 C.2     1  UNL1       -0.0084
     11 C         139.6445  140.3103  168.3623 C.2     1  UNL1        0.0538
     12 CL        139.2692  140.3469  169.8141 Cl      1  UNL1       -0.0826
     13 C         140.8464  141.0667  167.8790 C.2     1  UNL1        0.0120
     14 C         141.2217  141.0301  166.4272 C.2     1  UNL1        0.0119
     15 O         144.1765  139.0826  162.3023 O.2     1  UNL1       -0.2685
     16 C         143.5556  140.0288  161.3178 C.2     1  UNL1        0.2638
     17 N         143.0682  141.3722  161.7736 N.am    1  UNL1       -0.2961
     18 H         142.6606  141.9932  161.1274 H       1  UNL1        0.1501
     19 C         143.4221  139.6316  159.8775 C.ar    1  UNL1        0.1345
     20 C         142.7810  138.3245  159.5163 C.ar    1  UNL1        0.0238
     21 C         142.6475  137.9272  158.0761 C.ar    1  UNL1        0.0033
     22 C         143.1551  138.8371  156.9970 C.ar    1  UNL1        0.0207
     23 C         143.7962  140.1442  157.3581 C.ar    1  UNL1        0.0990
     24 N         143.9297  140.5415  158.7984 N.ar    1  UNL1       -0.2393
@<TRIPOS>BOND
     1    15    16    2
     2    16    17   am
     3     1    17    1
     4     1     2    1
     5     2     3    1
     6     3     4    1
     7     4     5    1
     8     5     6    2
     9     6     7    1
    10     7     8    2
    11     8     9    1
    12     9    10    1
    13    10    11    2
    14    11    12    1
    15    11    13    1
    16    13    14    2
    17    16    19    1
    18    19    20   ar
    19    20    21   ar
    20    21    22   ar
    21    22    23   ar
    22    23    24   ar
    23     6     1    1
    24    14     8    1
    25    24    19   ar
    26    14     5    1
    27    17    18    1
@<TRIPOS>MOLECULE
*****
 24 27 0 0 0
SMALL
GASTEIGER

@<TRIPOS>ATOM
      1 C         143.1584  138.4639  160.6145 C.3     1  UNL1        0.1118
      2 C         144.3078  139.4193  160.7409 C.3     1  UNL1        0.0261
      3 C         144.4270  140.2928  161.9544 C.3     1  UNL1        0.0068
      4 C         143.3968  140.2110  163.0415 C.3     1  UNL1        0.0277
      5 C         142.2474  139.2556  162.9152 C.2     1  UNL1       -0.0059
      6 C         142.1282  138.3820  161.7017 C.2     1  UNL1        0.0724
      7 N         140.8945  137.5424  161.8542 N.2     1  UNL1       -0.2523
      8 C         140.2513  137.8971  163.1621 C.2     1  UNL1        0.0628
      9 C         139.0122  137.3928  163.8406 C.3     1  UNL1        0.0726
     10 C         138.6092  137.9473  165.1749 C.2     1  UNL1       -0.0084
     11 C         139.4453  139.0061  165.8306 C.2     1  UNL1        0.0538
     12 CL        139.0424  139.5606  167.1648 Cl      1  UNL1       -0.0826
     13 C         140.6844  139.5104  165.1520 C.2     1  UNL1        0.0120
     14 C         141.0874  138.9559  163.8177 C.2     1  UNL1        0.0119
     15 O         141.6054  139.4130  158.2297 O.2     1  UNL1       -0.2685
     16 C         142.2627  138.0648  158.2086 C.2     1  UNL1        0.2638
     17 N         143.0392  137.5902  159.4010 N.am    1  UNL1       -0.2961
     18 H         143.4706  136.7054  159.3871 H       1  UNL1        0.1501
     19 C         142.1435  137.1912  156.9951 C.ar    1  UNL1        0.1345
     20 C         143.3781  136.6590  156.3298 C.ar    1  UNL1        0.0238
     21 C         143.2588  135.7854  155.1163 C.ar    1  UNL1        0.0033
     22 C         141.9050  135.4441  154.5680 C.ar    1  UNL1        0.0207
     23 C         140.6704  135.9763  155.2332 C.ar    1  UNL1        0.0990
     24 N         140.7896  136.8499  156.4467 N.ar    1  UNL1       -0.2393
@<TRIPOS>BOND
     1    15    16    2
     2    16    17   am
     3     1    17    1
     4     1     2    1
     5     2     3    1
     6     3     4    1
     7     4     5    1
     8     5     6    2
     9     6     7    1
    10     7     8    2
    11     8     9    1
    12     9    10    1
    13    10    11    2
    14    11    12    1
    15    11    13    1
    16    13    14    2
    17    16    19    1
    18    19    20   ar
    19    20    21   ar
    20    21    22   ar
    21    22    23   ar
    22    23    24   ar
    23     6     1    1
    24    14     8    1
    25    24    19   ar
    26    14     5    1
    27    17    18    1
