@<TRIPOS>MOLECULE
*****
 41 46 0 0 0
SMALL
GASTEIGER

@<TRIPOS>ATOM
      1 C         141.6165  140.4145  164.6248 C.3     1  UNL1        0.0236
      2 C         140.6726  141.2159  165.4715 C.3     1  UNL1        0.0256
      3 C         140.9120  141.3430  166.9468 C.3     1  UNL1        0.0937
      4 N         142.0954  140.6688  167.5754 N.am    1  UNL1       -0.2793
      5 C         142.3348  140.7960  169.0507 C.2     1  UNL1        0.2296
      6 O         143.5181  140.1218  169.6793 O.2     1  UNL1       -0.2745
      7 C         143.0392  139.8674  166.7287 C.3     1  UNL1        0.0937
      8 C         142.7999  139.7403  165.2535 C.3     1  UNL1        0.0256
      9 C         142.2226  139.7694  163.4137 C.ar    1  UNL1       -0.0204
     10 C         142.1900  138.2774  163.2632 C.ar    1  UNL1       -0.0041
     11 C         142.7961  137.6323  162.0521 C.ar    1  UNL1        0.0020
     12 C         143.4347  138.4794  160.9916 C.ar    1  UNL1        0.0296
     13 C         143.4673  139.9715  161.1422 C.ar    1  UNL1        0.1398
     14 F         144.1059  140.8185  160.0817 F       1  UNL1       -0.2042
     15 C         142.8612  140.6165  162.3533 C.ar    1  UNL1        0.0254
     16 C         141.3909  141.5974  169.8973 C.3     1  UNL1        0.1008
     17 C         140.5450  140.3769  170.1094 C.3     1  UNL1        0.0147
     18 C         142.2368  142.8178  169.6851 C.3     1  UNL1        0.0147
     19 C         140.4470  142.3989  170.7439 C.2     1  UNL1        0.0579
     20 O         139.6001  143.4668  170.1176 O.co2   1  UNL1       -0.5487
     21 O         140.3500  142.1324  172.2169 O.co2   1  UNL1       -0.5487
     22 C         140.6437  140.8646  163.5756 C.3     1  UNL1        0.0215
     23 C         139.2681  140.2687  163.5230 C.3     1  UNL1        0.0723
     24 C         139.1923  140.2482  163.6589 C.3     1  UNL1        0.0893
     25 C         139.5360  138.7929  163.5394 C.3     1  UNL1        0.0386
     26 C         139.0953  137.8286  164.6005 C.3     1  UNL1        0.0594
     27 C         138.4749  137.2587  165.8416 C.3     1  UNL1        0.0174
     28 C         137.8236  138.3823  166.5922 C.3     1  UNL1        0.0174
     29 C         138.0415  139.6466  165.8150 C.3     1  UNL1        0.0594
     30 C         138.4080  140.7390  164.8395 C.3     1  UNL1        0.0386
     31 N         138.8275  139.3044  164.5840 N.3     1  UNL1       -0.2751
     32 C         139.6491  139.4307  160.8627 C.3     1  UNL1        0.0718
     33 C         139.8875  140.8821  161.1569 C.ar    1  UNL1        0.1207
     34 N         140.3083  142.1419  160.4600 N.ar    1  UNL1       -0.2309
     35 C         140.3140  143.2508  161.4701 C.ar    1  UNL1        0.0983
     36 C         140.6453  144.7094  161.3574 C.ar    1  UNL1        0.0206
     37 C         140.5593  145.5935  162.5661 C.ar    1  UNL1        0.0016
     38 C         140.1419  145.0191  163.8874 C.ar    1  UNL1        0.0016
     39 C         139.8106  143.5605  164.0000 C.ar    1  UNL1        0.0188
     40 C         139.8966  142.6764  162.7914 C.ar    1  UNL1        0.0785
     41 N         139.6330  141.2124  162.5978 N.ar    1  UNL1       -0.3167
@<TRIPOS>UNITY_ATOM_ATTR
20 1
charge -1
@<TRIPOS>BOND
     1    32    33    1
     2    33    34   ar
     3    34    35   ar
     4    35    36   ar
     5    36    37   ar
     6    37    38   ar
     7    38    39   ar
     8    39    40   ar
     9    40    41   ar
    10    41    24    1
    11    24    25    1
    12    25    26    1
    13    26    27    1
    14    27    28    1
    15    28    29    1
    16    29    30    1
    17    29    31    1
    18    31    23    1
    19    23    22    1
    20    22     1    1
    21     1     9    1
    22     9    10   ar
    23    10    11   ar
    24    11    12   ar
    25    12    13   ar
    26    13    14    1
    27    13    15   ar
    28     1     2    1
    29     2     3    1
    30     3     4    1
    31     4     5   am
    32     5     6    2
    33     5    16    1
    34    16    17    1
    35    16    18    1
    36    16    19    1
    37    19    20   ar
    38    19    21   ar
    39     4     7    1
    40     7     8    1
    41    41    33   ar
    42    30    24    1
    43     8     1    1
    44    40    35   ar
    45    31    26    1
    46    15     9   ar
@<TRIPOS>MOLECULE
*****
 41 46 0 0 0
SMALL
GASTEIGER

@<TRIPOS>ATOM
      1 C         140.2983  141.0324  164.4190 C.3     1  UNL1        0.0236
      2 C         141.1210  141.9430  165.2814 C.3     1  UNL1        0.0256
      3 C         141.0979  141.7865  166.7731 C.3     1  UNL1        0.0937
      4 N         140.2521  140.7194  167.4023 N.am    1  UNL1       -0.2793
      5 C         140.2290  140.5630  168.8939 C.2     1  UNL1        0.2296
      6 O         139.3831  139.4959  169.5231 O.2     1  UNL1       -0.2745
      7 C         139.4293  139.8088  166.5398 C.3     1  UNL1        0.0937
      8 C         139.4524  139.9653  165.0482 C.3     1  UNL1        0.0256
      9 C         139.6967  140.4182  163.1897 C.ar    1  UNL1       -0.0204
     10 C         138.2202  140.5208  162.9458 C.ar    1  UNL1       -0.0041
     11 C         137.6186  139.9067  161.7166 C.ar    1  UNL1        0.0020
     12 C         138.4936  139.1900  160.7313 C.ar    1  UNL1        0.0296
     13 C         139.9701  139.0874  160.9752 C.ar    1  UNL1        0.1398
     14 F         140.8450  138.3707  159.9900 F       1  UNL1       -0.2042
     15 C         140.5716  139.7016  162.2045 C.ar    1  UNL1        0.0254
     16 C         141.0518  141.4736  169.7563 C.3     1  UNL1        0.1008
     17 C         139.8527  142.3472  169.9778 C.3     1  UNL1        0.0147
     18 C         142.2508  140.5999  169.5348 C.3     1  UNL1        0.0147
     19 C         141.8746  142.3842  170.6187 C.2     1  UNL1        0.0579
     20 O         142.8518  143.3325  169.9896 O.co2   1  UNL1       -0.5487
     21 O         141.7203  142.3465  172.1103 O.co2   1  UNL1       -0.5487
     22 C         140.9352  141.8861  163.3629 C.3     1  UNL1        0.0215
     23 C         140.4884  143.3059  163.1759 C.3     1  UNL1        0.0723
     24 C         140.4515  143.3934  163.3009 C.3     1  UNL1        0.0893
     25 C         139.0153  143.0965  162.9856 C.3     1  UNL1        0.0386
     26 C         137.9259  143.6599  163.8491 C.3     1  UNL1        0.0594
     27 C         137.2078  144.4021  164.9369 C.3     1  UNL1        0.0174
     28 C         138.2371  145.0703  165.7996 C.3     1  UNL1        0.0174
     29 C         139.5913  144.7410  165.2449 C.3     1  UNL1        0.0594
     30 C         140.7981  144.2537  164.4797 C.3     1  UNL1        0.0386
     31 N         139.3990  143.8692  164.0394 N.3     1  UNL1       -0.2751
     32 C         140.0561  142.7849  160.4428 C.3     1  UNL1        0.0718
     33 C         141.4256  142.4927  160.9804 C.ar    1  UNL1        0.1207
     34 N         142.7504  141.9593  160.5218 N.ar    1  UNL1       -0.2309
     35 C         143.6846  141.9668  161.6954 C.ar    1  UNL1        0.0983
     36 C         145.1192  141.5532  161.8390 C.ar    1  UNL1        0.0206
     37 C         145.8064  141.6778  163.1665 C.ar    1  UNL1        0.0016
     38 C         145.0589  142.2160  164.3504 C.ar    1  UNL1        0.0016
     39 C         143.6242  142.6296  164.2068 C.ar    1  UNL1        0.0188
     40 C         142.9371  142.5050  162.8793 C.ar    1  UNL1        0.0785
     41 N         141.5410  142.8300  162.4374 N.ar    1  UNL1       -0.3167
@<TRIPOS>UNITY_ATOM_ATTR
20 1
charge -1
@<TRIPOS>BOND
     1    32    33    1
     2    33    34   ar
     3    34    35   ar
     4    35    36   ar
     5    36    37   ar
     6    37    38   ar
     7    38    39   ar
     8    39    40   ar
     9    40    41   ar
    10    41    24    1
    11    24    25    1
    12    25    26    1
    13    26    27    1
    14    27    28    1
    15    28    29    1
    16    29    30    1
    17    29    31    1
    18    31    23    1
    19    23    22    1
    20    22     1    1
    21     1     9    1
    22     9    10   ar
    23    10    11   ar
    24    11    12   ar
    25    12    13   ar
    26    13    14    1
    27    13    15   ar
    28     1     2    1
    29     2     3    1
    30     3     4    1
    31     4     5   am
    32     5     6    2
    33     5    16    1
    34    16    17    1
    35    16    18    1
    36    16    19    1
    37    19    20   ar
    38    19    21   ar
    39     4     7    1
    40     7     8    1
    41    41    33   ar
    42    30    24    1
    43     8     1    1
    44    40    35   ar
    45    31    26    1
    46    15     9   ar
@<TRIPOS>MOLECULE
*****
 41 46 0 0 0
SMALL
GASTEIGER

@<TRIPOS>ATOM
      1 C         140.4024  140.9875  164.3868 C.3     1  UNL1        0.0236
      2 C         140.6628  142.2773  165.1069 C.3     1  UNL1        0.0256
      3 C         140.9436  142.2703  166.5803 C.3     1  UNL1        0.0937
      4 N         140.9640  140.9734  167.3337 N.am    1  UNL1       -0.2793
      5 C         141.2448  140.9663  168.8072 C.2     1  UNL1        0.2296
      6 O         141.2653  139.6694  169.5606 O.2     1  UNL1       -0.2745
      7 C         140.7036  139.6835  166.6137 C.3     1  UNL1        0.0937
      8 C         140.4228  139.6905  165.1403 C.3     1  UNL1        0.0256
      9 C         140.0982  140.0328  163.2704 C.ar    1  UNL1       -0.0204
     10 C         141.1768  139.1404  162.7319 C.ar    1  UNL1       -0.0041
     11 C         140.8726  138.1857  161.6156 C.ar    1  UNL1        0.0020
     12 C         139.4897  138.1236  161.0378 C.ar    1  UNL1        0.0296
     13 C         138.4111  139.0161  161.5764 C.ar    1  UNL1        0.1398
     14 F         137.0283  138.9539  160.9986 F       1  UNL1       -0.2042
     15 C         138.7154  139.9707  162.6927 C.ar    1  UNL1        0.0254
     16 C         141.5052  142.2562  169.5272 C.3     1  UNL1        0.1008
     17 C         140.0523  142.3479  169.8884 C.3     1  UNL1        0.0147
     18 C         142.9582  142.1644  169.1659 C.3     1  UNL1        0.0147
     19 C         141.7657  143.5461  170.2472 C.2     1  UNL1        0.0579
     20 O         143.0904  143.7804  170.9107 O.co2   1  UNL1       -0.5487
     21 O         140.7015  144.6017  170.3036 O.co2   1  UNL1       -0.5487
     22 C         140.2763  141.9528  163.2457 C.3     1  UNL1        0.0215
     23 C         141.4801  142.7085  162.7660 C.3     1  UNL1        0.0723
     24 C         141.5752  142.7815  162.8673 C.3     1  UNL1        0.0893
     25 C         142.4717  141.5830  162.7662 C.3     1  UNL1        0.0386
     26 C         143.7495  141.5340  163.5503 C.3     1  UNL1        0.0594
     27 C         144.8730  141.9062  164.4719 C.3     1  UNL1        0.0174
     28 C         144.5756  143.2618  165.0412 C.3     1  UNL1        0.0174
     29 C         143.2684  143.7273  164.4715 C.3     1  UNL1        0.0594
     30 C         141.9567  143.9308  163.7524 C.3     1  UNL1        0.0386
     31 N         142.7578  142.6594  163.5500 N.3     1  UNL1       -0.2751
     32 C         139.1939  144.2466  163.8044 C.3     1  UNL1        0.0718
     33 C         139.0436  143.5493  162.4848 C.ar    1  UNL1        0.1207
     34 N         138.0203  143.3323  161.4097 N.ar    1  UNL1       -0.2309
     35 C         138.6417  142.4794  160.3437 C.ar    1  UNL1        0.0983
     36 C         138.1079  141.9451  159.0478 C.ar    1  UNL1        0.0206
     37 C         138.9814  141.1006  158.1681 C.ar    1  UNL1        0.0016
     38 C         140.3887  140.7904  158.5844 C.ar    1  UNL1        0.0016
     39 C         140.9225  141.3247  159.8803 C.ar    1  UNL1        0.0188
     40 C         140.0490  142.1692  160.7600 C.ar    1  UNL1        0.0785
     41 N         140.2974  142.8305  162.0833 N.ar    1  UNL1       -0.3167
@<TRIPOS>UNITY_ATOM_ATTR
20 1
charge -1
@<TRIPOS>BOND
     1    32    33    1
     2    33    34   ar
     3    34    35   ar
     4    35    36   ar
     5    36    37   ar
     6    37    38   ar
     7    38    39   ar
     8    39    40   ar
     9    40    41   ar
    10    41    24    1
    11    24    25    1
    12    25    26    1
    13    26    27    1
    14    27    28    1
    15    28    29    1
    16    29    30    1
    17    29    31    1
    18    31    23    1
    19    23    22    1
    20    22     1    1
    21     1     9    1
    22     9    10   ar
    23    10    11   ar
    24    11    12   ar
    25    12    13   ar
    26    13    14    1
    27    13    15   ar
    28     1     2    1
    29     2     3    1
    30     3     4    1
    31     4     5   am
    32     5     6    2
    33     5    16    1
    34    16    17    1
    35    16    18    1
    36    16    19    1
    37    19    20   ar
    38    19    21   ar
    39     4     7    1
    40     7     8    1
    41    41    33   ar
    42    30    24    1
    43     8     1    1
    44    40    35   ar
    45    31    26    1
    46    15     9   ar
@<TRIPOS>MOLECULE
*****
 41 46 0 0 0
SMALL
GASTEIGER

@<TRIPOS>ATOM
      1 C         141.8553  142.5528  164.5981 C.3     1  UNL1        0.0236
      2 C         140.6002  142.7681  165.3908 C.3     1  UNL1        0.0256
      3 C         140.5894  142.4983  166.8663 C.3     1  UNL1        0.0937
      4 N         141.8338  142.0133  167.5492 N.am    1  UNL1       -0.2793
      5 C         141.8230  141.7435  169.0247 C.2     1  UNL1        0.2296
      6 O         143.0674  141.2584  169.7075 O.2     1  UNL1       -0.2745
      7 C         143.0889  141.7980  166.7565 C.3     1  UNL1        0.0937
      8 C         143.0997  142.0677  165.2811 C.3     1  UNL1        0.0256
      9 C         142.7913  142.4995  163.4271 C.ar    1  UNL1       -0.0204
     10 C         143.3293  143.7700  162.8386 C.ar    1  UNL1       -0.0041
     11 C         144.2652  143.7167  161.6675 C.ar    1  UNL1        0.0020
     12 C         144.6630  142.3929  161.0851 C.ar    1  UNL1        0.0296
     13 C         144.1249  141.1224  161.6736 C.ar    1  UNL1        0.1398
     14 F         144.5228  139.7987  161.0911 F       1  UNL1       -0.2042
     15 C         143.1890  141.1758  162.8446 C.ar    1  UNL1        0.0254
     16 C         140.5679  141.9588  169.8173 C.3     1  UNL1        0.1008
     17 C         140.2495  140.4969  169.7102 C.3     1  UNL1        0.0147
     18 C         140.8864  143.4207  169.9243 C.3     1  UNL1        0.0147
     19 C         139.3127  142.1742  170.6099 C.2     1  UNL1        0.0579
     20 O         138.2398  141.1259  170.6152 O.co2   1  UNL1       -0.5487
     21 O         139.1305  143.4379  171.3971 O.co2   1  UNL1       -0.5487
     22 C         140.9361  143.0194  163.5086 C.3     1  UNL1        0.0215
     23 C         139.7575  142.1807  163.1113 C.3     1  UNL1        0.0723
     24 C         139.6647  142.1125  163.2179 C.3     1  UNL1        0.0893
     25 C         140.4739  140.8669  163.0084 C.3     1  UNL1        0.0386
     26 C         140.1462  139.6214  163.7775 C.3     1  UNL1        0.0594
     27 C         139.4874  138.6591  164.7208 C.3     1  UNL1        0.0174
     28 C         138.3638  139.3783  165.4068 C.3     1  UNL1        0.0174
     29 C         138.3282  140.7850  164.8873 C.3     1  UNL1        0.0594
     30 C         138.5279  142.1124  164.1964 C.3     1  UNL1        0.0386
     31 N         139.4298  140.9353  163.8803 N.3     1  UNL1       -0.2751
     32 C         139.1166  144.8141  164.2649 C.3     1  UNL1        0.0718
     33 C         139.7481  144.7658  162.9051 C.ar    1  UNL1        0.1207
     34 N         140.2266  145.6921  161.8267 N.ar    1  UNL1       -0.2309
     35 C         140.7666  144.8567  160.7039 C.ar    1  UNL1        0.0983
     36 C         141.3713  145.2233  159.3811 C.ar    1  UNL1        0.0206
     37 C         141.8313  144.1472  158.4428 C.ar    1  UNL1        0.0016
     38 C         141.6865  142.7046  158.8273 C.ar    1  UNL1        0.0016
     39 C         141.0817  142.3380  160.1501 C.ar    1  UNL1        0.0188
     40 C         140.6217  143.4141  161.0884 C.ar    1  UNL1        0.0785
     41 N         139.9923  143.3579  162.4488 N.ar    1  UNL1       -0.3167
@<TRIPOS>UNITY_ATOM_ATTR
20 1
charge -1
@<TRIPOS>BOND
     1    32    33    1
     2    33    34   ar
     3    34    35   ar
     4    35    36   ar
     5    36    37   ar
     6    37    38   ar
     7    38    39   ar
     8    39    40   ar
     9    40    41   ar
    10    41    24    1
    11    24    25    1
    12    25    26    1
    13    26    27    1
    14    27    28    1
    15    28    29    1
    16    29    30    1
    17    29    31    1
    18    31    23    1
    19    23    22    1
    20    22     1    1
    21     1     9    1
    22     9    10   ar
    23    10    11   ar
    24    11    12   ar
    25    12    13   ar
    26    13    14    1
    27    13    15   ar
    28     1     2    1
    29     2     3    1
    30     3     4    1
    31     4     5   am
    32     5     6    2
    33     5    16    1
    34    16    17    1
    35    16    18    1
    36    16    19    1
    37    19    20   ar
    38    19    21   ar
    39     4     7    1
    40     7     8    1
    41    41    33   ar
    42    30    24    1
    43     8     1    1
    44    40    35   ar
    45    31    26    1
    46    15     9   ar
@<TRIPOS>MOLECULE
*****
 41 46 0 0 0
SMALL
GASTEIGER

@<TRIPOS>ATOM
      1 C         141.8506  141.2235  164.4317 C.3     1  UNL1        0.0236
      2 C         140.7484  140.9959  165.4234 C.3     1  UNL1        0.0256
      3 C         140.9534  141.3489  166.8668 C.3     1  UNL1        0.0937
      4 N         142.2606  141.9296  167.3185 N.am    1  UNL1       -0.2793
      5 C         142.4655  142.2826  168.7619 C.2     1  UNL1        0.2296
      6 O         143.7727  142.8633  169.2137 O.2     1  UNL1       -0.2745
      7 C         143.3627  142.1572  166.3269 C.3     1  UNL1        0.0937
      8 C         143.1578  141.8042  164.8835 C.3     1  UNL1        0.0256
      9 C         142.5878  141.2531  163.1256 C.ar    1  UNL1       -0.0204
     10 C         142.8242  142.5594  162.4273 C.ar    1  UNL1       -0.0041
     11 C         143.5614  142.5890  161.1212 C.ar    1  UNL1        0.0020
     12 C         144.0621  141.3122  160.5136 C.ar    1  UNL1        0.0296
     13 C         143.8256  140.0059  161.2120 C.ar    1  UNL1        0.1398
     14 F         144.3263  138.7292  160.6044 F       1  UNL1       -0.2042
     15 C         143.0884  139.9764  162.5181 C.ar    1  UNL1        0.0254
     16 C         141.3633  142.0549  169.7535 C.3     1  UNL1        0.1008
     17 C         140.8232  143.4248  169.4676 C.3     1  UNL1        0.0147
     18 C         141.9035  140.6851  170.0393 C.3     1  UNL1        0.0147
     19 C         140.2611  141.8272  170.7451 C.2     1  UNL1        0.0579
     20 O         138.9584  141.2347  170.2956 O.co2   1  UNL1       -0.5487
     21 O         140.4616  142.1919  172.1862 O.co2   1  UNL1       -0.5487
     22 C         140.7994  140.6532  163.5264 C.3     1  UNL1        0.0215
     23 C         139.5786  141.4588  163.1936 C.3     1  UNL1        0.0723
     24 C         139.6003  141.5783  163.0941 C.3     1  UNL1        0.0893
     25 C         139.4674  142.4864  164.2806 C.3     1  UNL1        0.0386
     26 C         139.5744  143.9721  164.1037 C.3     1  UNL1        0.0594
     27 C         139.7427  145.3261  163.4805 C.3     1  UNL1        0.0174
     28 C         139.9580  145.1353  162.0084 C.3     1  UNL1        0.0174
     29 C         139.9228  143.6634  161.7217 C.3     1  UNL1        0.0594
     30 C         139.8403  142.1559  161.7308 C.3     1  UNL1        0.0386
     31 N         139.6857  142.9444  163.0167 N.3     1  UNL1       -0.2751
     32 C         140.5135  139.6663  161.0433 C.3     1  UNL1        0.0718
     33 C         139.9315  139.0531  162.2823 C.ar    1  UNL1        0.1207
     34 N         139.6383  137.7037  162.8680 N.ar    1  UNL1       -0.2309
     35 C         139.0188  137.9091  164.2186 C.ar    1  UNL1        0.0983
     36 C         138.5248  136.9426  165.2537 C.ar    1  UNL1        0.0206
     37 C         137.9411  137.4525  166.5380 C.ar    1  UNL1        0.0016
     38 C         137.8515  138.9289  166.7871 C.ar    1  UNL1        0.0016
     39 C         138.3455  139.8955  165.7519 C.ar    1  UNL1        0.0188
     40 C         138.9292  139.3856  164.4676 C.ar    1  UNL1        0.0785
     41 N         139.4933  140.0926  163.2710 N.ar    1  UNL1       -0.3167
@<TRIPOS>UNITY_ATOM_ATTR
20 1
charge -1
@<TRIPOS>BOND
     1    32    33    1
     2    33    34   ar
     3    34    35   ar
     4    35    36   ar
     5    36    37   ar
     6    37    38   ar
     7    38    39   ar
     8    39    40   ar
     9    40    41   ar
    10    41    24    1
    11    24    25    1
    12    25    26    1
    13    26    27    1
    14    27    28    1
    15    28    29    1
    16    29    30    1
    17    29    31    1
    18    31    23    1
    19    23    22    1
    20    22     1    1
    21     1     9    1
    22     9    10   ar
    23    10    11   ar
    24    11    12   ar
    25    12    13   ar
    26    13    14    1
    27    13    15   ar
    28     1     2    1
    29     2     3    1
    30     3     4    1
    31     4     5   am
    32     5     6    2
    33     5    16    1
    34    16    17    1
    35    16    18    1
    36    16    19    1
    37    19    20   ar
    38    19    21   ar
    39     4     7    1
    40     7     8    1
    41    41    33   ar
    42    30    24    1
    43     8     1    1
    44    40    35   ar
    45    31    26    1
    46    15     9   ar
@<TRIPOS>MOLECULE
*****
 41 46 0 0 0
SMALL
GASTEIGER

@<TRIPOS>ATOM
      1 C         141.4556  142.0349  164.2271 C.3     1  UNL1        0.0236
      2 C         140.2486  142.1463  165.1108 C.3     1  UNL1        0.0256
      3 C         140.3983  142.0514  166.6003 C.3     1  UNL1        0.0937
      4 N         141.7549  141.8452  167.2061 N.am    1  UNL1       -0.2793
      5 C         141.9046  141.7503  168.6956 C.2     1  UNL1        0.2296
      6 O         143.2612  141.5441  169.3015 O.2     1  UNL1       -0.2745
      7 C         142.9619  141.7338  166.3224 C.3     1  UNL1        0.0937
      8 C         142.8122  141.8287  164.8330 C.3     1  UNL1        0.0256
      9 C         142.2924  141.9897  162.9829 C.ar    1  UNL1       -0.0204
     10 C         142.5302  143.2425  162.1931 C.ar    1  UNL1       -0.0041
     11 C         143.3670  143.1973  160.9490 C.ar    1  UNL1        0.0020
     12 C         143.9659  141.8992  160.4948 C.ar    1  UNL1        0.0296
     13 C         143.7281  140.6463  161.2847 C.ar    1  UNL1        0.1398
     14 F         144.3270  139.3484  160.8305 F       1  UNL1       -0.2042
     15 C         142.8913  140.6917  162.5288 C.ar    1  UNL1        0.0254
     16 C         140.6976  141.8617  169.5792 C.3     1  UNL1        0.1008
     17 C         140.5289  140.3719  169.5366 C.3     1  UNL1        0.0147
     18 C         140.8664  143.3516  169.6218 C.3     1  UNL1        0.0147
     19 C         139.4906  141.9732  170.4628 C.2     1  UNL1        0.0579
     20 O         138.4517  140.8912  170.4534 O.co2   1  UNL1       -0.5487
     21 O         139.3225  143.1666  171.3558 O.co2   1  UNL1       -0.5487
     22 C         140.3896  142.2254  163.1892 C.3     1  UNL1        0.0215
     23 C         139.3517  141.1635  162.9763 C.3     1  UNL1        0.0723
     24 C         139.2798  141.0936  163.0970 C.3     1  UNL1        0.0893
     25 C         140.2696  139.9778  162.9376 C.3     1  UNL1        0.0386
     26 C         140.2138  138.7895  163.8514 C.3     1  UNL1        0.0594
     27 C         139.7977  137.8455  164.9403 C.3     1  UNL1        0.0174
     28 C         138.6226  138.4479  165.6519 C.3     1  UNL1        0.0174
     29 C         138.3125  139.7642  165.0028 C.3     1  UNL1        0.0594
     30 C         138.2344  141.0211  164.1701 C.3     1  UNL1        0.0386
     31 N         139.2960  139.9753  163.8899 N.3     1  UNL1       -0.2751
     32 C         138.3738  143.7752  163.9241 C.3     1  UNL1        0.0718
     33 C         138.8973  143.6759  162.5219 C.ar    1  UNL1        0.1207
     34 N         139.1303  144.5402  161.3183 N.ar    1  UNL1       -0.2309
     35 C         139.7127  143.6805  160.2359 C.ar    1  UNL1        0.0983
     36 C         140.1438  143.9882  158.8326 C.ar    1  UNL1        0.0206
     37 C         140.7019  142.9002  157.9638 C.ar    1  UNL1        0.0016
     38 C         140.8288  141.5045  158.4984 C.ar    1  UNL1        0.0016
     39 C         140.3976  141.1967  159.9017 C.ar    1  UNL1        0.0188
     40 C         139.8396  142.2847  160.7704 C.ar    1  UNL1        0.0785
     41 N         139.3356  142.2819  162.1833 N.ar    1  UNL1       -0.3167
@<TRIPOS>UNITY_ATOM_ATTR
20 1
charge -1
@<TRIPOS>BOND
     1    32    33    1
     2    33    34   ar
     3    34    35   ar
     4    35    36   ar
     5    36    37   ar
     6    37    38   ar
     7    38    39   ar
     8    39    40   ar
     9    40    41   ar
    10    41    24    1
    11    24    25    1
    12    25    26    1
    13    26    27    1
    14    27    28    1
    15    28    29    1
    16    29    30    1
    17    29    31    1
    18    31    23    1
    19    23    22    1
    20    22     1    1
    21     1     9    1
    22     9    10   ar
    23    10    11   ar
    24    11    12   ar
    25    12    13   ar
    26    13    14    1
    27    13    15   ar
    28     1     2    1
    29     2     3    1
    30     3     4    1
    31     4     5   am
    32     5     6    2
    33     5    16    1
    34    16    17    1
    35    16    18    1
    36    16    19    1
    37    19    20   ar
    38    19    21   ar
    39     4     7    1
    40     7     8    1
    41    41    33   ar
    42    30    24    1
    43     8     1    1
    44    40    35   ar
    45    31    26    1
    46    15     9   ar
@<TRIPOS>MOLECULE
*****
 41 46 0 0 0
SMALL
GASTEIGER

@<TRIPOS>ATOM
      1 C         141.8136  141.3375  164.0328 C.3     1  UNL1        0.0236
      2 C         142.0415  142.5581  164.8744 C.3     1  UNL1        0.0256
      3 C         141.9113  142.4754  166.3664 C.3     1  UNL1        0.0937
      4 N         141.5533  141.1720  167.0169 N.am    1  UNL1       -0.2793
      5 C         141.4232  141.0893  168.5090 C.2     1  UNL1        0.2296
      6 O         141.0652  139.7860  169.1595 O.2     1  UNL1       -0.2745
      7 C         141.3255  139.9515  166.1754 C.3     1  UNL1        0.0937
      8 C         141.4556  140.0341  164.6834 C.3     1  UNL1        0.0256
      9 C         141.6958  140.4641  162.8189 C.ar    1  UNL1       -0.0204
     10 C         140.3486  139.9803  162.3710 C.ar    1  UNL1       -0.0041
     11 C         140.2308  139.1069  161.1571 C.ar    1  UNL1        0.0020
     12 C         141.4604  138.7175  160.3912 C.ar    1  UNL1        0.0296
     13 C         142.8077  139.2014  160.8392 C.ar    1  UNL1        0.1398
     14 F         144.0372  138.8120  160.0734 F       1  UNL1       -0.2042
     15 C         142.9253  140.0748  162.0531 C.ar    1  UNL1        0.0254
     16 C         141.6511  142.3099  169.3505 C.3     1  UNL1        0.1008
     17 C         143.1210  142.0129  169.3833 C.3     1  UNL1        0.0147
     18 C         140.1812  142.6069  169.3176 C.3     1  UNL1        0.0147
     19 C         141.8789  143.5306  170.1920 C.2     1  UNL1        0.0579
     20 O         140.8001  144.5649  170.3206 O.co2   1  UNL1       -0.5487
     21 O         143.1854  143.7170  170.9048 O.co2   1  UNL1       -0.5487
     22 C         142.1307  142.3375  162.9608 C.3     1  UNL1        0.0215
     23 C         141.1778  143.4608  162.6773 C.3     1  UNL1        0.0723
     24 C         141.1105  143.5435  162.7925 C.3     1  UNL1        0.0893
     25 C         139.9191  142.6462  162.6321 C.3     1  UNL1        0.0386
     26 C         138.7108  142.8417  163.4993 C.3     1  UNL1        0.0594
     27 C         137.7712  143.3827  164.5359 C.3     1  UNL1        0.0174
     28 C         138.4493  144.5316  165.2216 C.3     1  UNL1        0.0174
     29 C         139.8079  144.7007  164.6089 C.3     1  UNL1        0.0594
     30 C         141.0935  144.6361  163.8199 C.3     1  UNL1        0.0386
     31 N         139.9696  143.6563  163.5443 N.3     1  UNL1       -0.2751
     32 C         143.8328  144.2448  163.6828 C.3     1  UNL1        0.0718
     33 C         143.7340  143.6764  162.2982 C.ar    1  UNL1        0.1207
     34 N         144.6137  143.3211  161.1364 N.ar    1  UNL1       -0.2309
     35 C         143.7422  142.7731  160.0455 C.ar    1  UNL1        0.0983
     36 C         144.0568  142.2611  158.6712 C.ar    1  UNL1        0.0206
     37 C         142.9531  141.7657  157.7845 C.ar    1  UNL1        0.0016
     38 C         141.5347  141.7823  158.2721 C.ar    1  UNL1        0.0016
     39 C         141.2200  142.2943  159.6464 C.ar    1  UNL1        0.0188
     40 C         142.3237  142.7897  160.5331 C.ar    1  UNL1        0.0785
     41 N         142.3187  143.3480  161.9253 N.ar    1  UNL1       -0.3167
@<TRIPOS>UNITY_ATOM_ATTR
20 1
charge -1
@<TRIPOS>BOND
     1    32    33    1
     2    33    34   ar
     3    34    35   ar
     4    35    36   ar
     5    36    37   ar
     6    37    38   ar
     7    38    39   ar
     8    39    40   ar
     9    40    41   ar
    10    41    24    1
    11    24    25    1
    12    25    26    1
    13    26    27    1
    14    27    28    1
    15    28    29    1
    16    29    30    1
    17    29    31    1
    18    31    23    1
    19    23    22    1
    20    22     1    1
    21     1     9    1
    22     9    10   ar
    23    10    11   ar
    24    11    12   ar
    25    12    13   ar
    26    13    14    1
    27    13    15   ar
    28     1     2    1
    29     2     3    1
    30     3     4    1
    31     4     5   am
    32     5     6    2
    33     5    16    1
    34    16    17    1
    35    16    18    1
    36    16    19    1
    37    19    20   ar
    38    19    21   ar
    39     4     7    1
    40     7     8    1
    41    41    33   ar
    42    30    24    1
    43     8     1    1
    44    40    35   ar
    45    31    26    1
    46    15     9   ar
@<TRIPOS>MOLECULE
*****
 41 46 0 0 0
SMALL
GASTEIGER

@<TRIPOS>ATOM
      1 C         141.6814  141.2039  164.2246 C.3     1  UNL1        0.0236
      2 C         140.4933  141.0489  165.1270 C.3     1  UNL1        0.0256
      3 C         140.6046  141.4011  166.5809 C.3     1  UNL1        0.0937
      4 N         141.9041  141.9083  167.1323 N.am    1  UNL1       -0.2793
      5 C         142.0155  142.2605  168.5861 C.2     1  UNL1        0.2296
      6 O         143.3150  142.7676  169.1375 O.2     1  UNL1       -0.2745
      7 C         143.0922  142.0633  166.2298 C.3     1  UNL1        0.0937
      8 C         142.9809  141.7111  164.7761 C.3     1  UNL1        0.0256
      9 C         142.5193  141.1799  162.9806 C.ar    1  UNL1       -0.0204
     10 C         142.8990  142.4652  162.3072 C.ar    1  UNL1       -0.0041
     11 C         143.7370  142.4412  161.0633 C.ar    1  UNL1        0.0020
     12 C         144.1951  141.1317  160.4929 C.ar    1  UNL1        0.0296
     13 C         143.8154  139.8463  161.1663 C.ar    1  UNL1        0.1398
     14 F         144.2736  138.5370  160.5959 F       1  UNL1       -0.2042
     15 C         142.9775  139.8705  162.4103 C.ar    1  UNL1        0.0254
     16 C         140.8273  142.1054  169.4884 C.3     1  UNL1        0.1008
     17 C         141.2110  140.6788  169.7485 C.3     1  UNL1        0.0147
     18 C         140.4438  143.5320  169.2283 C.3     1  UNL1        0.0147
     19 C         139.6391  141.9505  170.3908 C.2     1  UNL1        0.0579
     20 O         139.3272  143.0076  171.4083 O.co2   1  UNL1       -0.5487
     21 O         138.7629  140.7385  170.2755 O.co2   1  UNL1       -0.5487
     22 C         140.6729  140.6884  163.2412 C.3     1  UNL1        0.0215
     23 C         139.4938  141.5348  162.8626 C.3     1  UNL1        0.0723
     24 C         139.4048  141.6072  162.9698 C.3     1  UNL1        0.0893
     25 C         140.2334  142.8315  162.7156 C.3     1  UNL1        0.0386
     26 C         139.9483  144.0990  163.4654 C.3     1  UNL1        0.0594
     27 C         139.3307  145.0937  164.4030 C.3     1  UNL1        0.0174
     28 C         138.2094  144.4118  165.1294 C.3     1  UNL1        0.0174
     29 C         138.1340  142.9956  164.6408 C.3     1  UNL1        0.0594
     30 C         138.2913  141.6504  163.9738 C.3     1  UNL1        0.0386
     31 N         139.2088  142.8023  163.6124 N.3     1  UNL1       -0.2751
     32 C         138.9655  138.9372  164.1419 C.3     1  UNL1        0.0718
     33 C         139.4957  138.9457  162.7388 C.ar    1  UNL1        0.1207
     34 N         139.9050  137.9882  161.6591 N.ar    1  UNL1       -0.2309
     35 C         140.3522  138.7904  160.4731 C.ar    1  UNL1        0.0983
     36 C         140.8632  138.3852  159.1224 C.ar    1  UNL1        0.0206
     37 C         141.2413  139.4334  158.1182 C.ar    1  UNL1        0.0016
     38 C         141.1083  140.8867  158.4649 C.ar    1  UNL1        0.0016
     39 C         140.5973  141.2919  159.8156 C.ar    1  UNL1        0.0188
     40 C         140.2192  140.2437  160.8198 C.ar    1  UNL1        0.0785
     41 N         139.6899  140.3397  162.2200 N.ar    1  UNL1       -0.3167
@<TRIPOS>UNITY_ATOM_ATTR
20 1
charge -1
@<TRIPOS>BOND
     1    32    33    1
     2    33    34   ar
     3    34    35   ar
     4    35    36   ar
     5    36    37   ar
     6    37    38   ar
     7    38    39   ar
     8    39    40   ar
     9    40    41   ar
    10    41    24    1
    11    24    25    1
    12    25    26    1
    13    26    27    1
    14    27    28    1
    15    28    29    1
    16    29    30    1
    17    29    31    1
    18    31    23    1
    19    23    22    1
    20    22     1    1
    21     1     9    1
    22     9    10   ar
    23    10    11   ar
    24    11    12   ar
    25    12    13   ar
    26    13    14    1
    27    13    15   ar
    28     1     2    1
    29     2     3    1
    30     3     4    1
    31     4     5   am
    32     5     6    2
    33     5    16    1
    34    16    17    1
    35    16    18    1
    36    16    19    1
    37    19    20   ar
    38    19    21   ar
    39     4     7    1
    40     7     8    1
    41    41    33   ar
    42    30    24    1
    43     8     1    1
    44    40    35   ar
    45    31    26    1
    46    15     9   ar
