@<TRIPOS>MOLECULE
*****
 23 23 0 0 0
SMALL
GASTEIGER

@<TRIPOS>ATOM
      1 N         140.5784  141.7357  169.6336 N.am    1  UNL1       -0.1579
      2 C         140.7729  140.6081  168.6637 C.2     1  UNL1        0.3686
      3 O         141.4669  139.3528  169.1025 O.2     1  UNL1       -0.2332
      4 N         140.2735  140.7359  167.2551 N.am    1  UNL1       -0.2556
      5 H         140.1229  142.5597  169.3456 H       1  UNL1        0.2558
      6 H         139.8180  141.5598  166.9671 H       1  UNL1        0.1578
      7 C         140.4681  139.6083  166.2852 C.ar    1  UNL1        0.0448
      8 C         139.3097  138.7313  165.9124 C.ar    1  UNL1       -0.0089
      9 C         139.5042  137.6037  164.9426 C.ar    1  UNL1       -0.0031
     10 C         140.8572  137.3531  164.3454 C.ar    1  UNL1       -0.0006
     11 C         142.0156  138.2301  164.7181 C.ar    1  UNL1       -0.0031
     12 C         141.8210  139.3576  165.6880 C.ar    1  UNL1       -0.0089
     13 C         137.9566  138.9819  166.5096 C.3     1  UNL1        0.0276
     14 C         137.2523  137.8884  167.2567 C.3     1  UNL1        0.0051
     15 C         142.9795  140.2346  166.0608 C.3     1  UNL1        0.0276
     16 C         143.1761  141.5515  165.3699 C.3     1  UNL1        0.0051
     17 C         141.0778  141.6079  171.0422 C.2     1  UNL1        0.3790
     18 N         140.5256  140.5406  171.9399 N.pl3   1  UNL1       -0.1311
     19 H         140.8534  140.4567  172.8644 H       1  UNL1        0.3060
     20 N         142.1295  142.5476  171.5532 N.pl3   1  UNL1       -0.2637
     21 H         142.2111  142.7165  172.5197 H       1  UNL1        0.2586
     22 C         144.0044  142.4178  169.7594 C.3     1  UNL1        0.0464
     23 C         143.0568  143.2298  170.5917 C.3     1  UNL1        0.1739
@<TRIPOS>BOND
     1    22    23    1
     2    23    20    1
     3    20    17    1
     4    17    18    2
     5    17     1    1
     6     1     2   am
     7     2     3    2
     8     2     4   am
     9     4     7    1
    10     7     8   ar
    11     8    13    1
    12    13    14    1
    13     8     9   ar
    14     9    10   ar
    15    10    11   ar
    16    11    12   ar
    17    12    15    1
    18    15    16    1
    19    12     7   ar
    20    20    21    1
    21    18    19    1
    22     1     5    1
    23     4     6    1
@<TRIPOS>MOLECULE
*****
 23 23 0 0 0
SMALL
GASTEIGER

@<TRIPOS>ATOM
      1 N         140.5924  141.7146  169.7203 N.am    1  UNL1       -0.1579
      2 C         140.7992  140.6166  168.7196 C.2     1  UNL1        0.3686
      3 O         141.5725  139.3893  169.1018 O.2     1  UNL1       -0.2332
      4 N         140.2329  140.7457  167.3367 N.am    1  UNL1       -0.2556
      5 H         140.0850  142.5201  169.4695 H       1  UNL1        0.2558
      6 H         139.7254  141.5512  167.0858 H       1  UNL1        0.1578
      7 C         140.4397  139.6477  166.3359 C.ar    1  UNL1        0.0448
      8 C         141.7814  139.4635  165.6911 C.ar    1  UNL1       -0.0089
      9 C         141.9882  138.3655  164.6903 C.ar    1  UNL1       -0.0031
     10 C         140.8533  137.4516  164.3344 C.ar    1  UNL1       -0.0006
     11 C         139.5116  137.6357  164.9793 C.ar    1  UNL1       -0.0031
     12 C         139.3048  138.7338  165.9800 C.ar    1  UNL1       -0.0089
     13 C         142.9164  140.3775  166.0470 C.3     1  UNL1        0.0276
     14 C         143.0814  141.6835  165.3279 C.3     1  UNL1        0.0051
     15 C         137.9630  138.9179  166.6249 C.3     1  UNL1        0.0276
     16 C         137.2472  137.7399  167.2165 C.3     1  UNL1        0.0051
     17 C         141.1589  141.5854  171.1033 C.2     1  UNL1        0.3790
     18 N         140.6854  140.4867  172.0081 N.pl3   1  UNL1       -0.1311
     19 H         141.0571  140.4019  172.9158 H       1  UNL1        0.3060
     20 N         142.1988  142.5549  171.5814 N.pl3   1  UNL1       -0.2637
     21 H         142.2775  142.7587  172.5414 H       1  UNL1        0.2586
     22 C         144.0778  142.3849  169.7953 C.3     1  UNL1        0.0464
     23 C         143.1187  143.2140  170.5970 C.3     1  UNL1        0.1739
@<TRIPOS>BOND
     1    22    23    1
     2    23    20    1
     3    20    17    1
     4    17    18    2
     5    17     1    1
     6     1     2   am
     7     2     3    2
     8     2     4   am
     9     4     7    1
    10     7     8   ar
    11     8    13    1
    12    13    14    1
    13     8     9   ar
    14     9    10   ar
    15    10    11   ar
    16    11    12   ar
    17    12    15    1
    18    15    16    1
    19    12     7   ar
    20    20    21    1
    21    18    19    1
    22     1     5    1
    23     4     6    1
@<TRIPOS>MOLECULE
*****
 23 23 0 0 0
SMALL
GASTEIGER

@<TRIPOS>ATOM
      1 N         142.8030  142.0517  168.4059 N.am    1  UNL1       -0.1579
      2 C         142.5115  140.8309  167.5845 C.2     1  UNL1        0.3686
      3 O         142.8989  139.4742  168.0939 O.2     1  UNL1       -0.2332
      4 N         141.8327  140.9668  166.2539 N.am    1  UNL1       -0.2556
      5 H         142.5488  142.9422  168.0717 H       1  UNL1        0.2558
      6 H         141.5785  141.8572  165.9196 H       1  UNL1        0.1578
      7 C         141.5413  139.7460  165.4325 C.ar    1  UNL1        0.0448
      8 C         142.5238  139.2871  164.3962 C.ar    1  UNL1       -0.0089
      9 C         142.2324  138.0663  163.5748 C.ar    1  UNL1       -0.0031
     10 C         140.9583  137.3044  163.7897 C.ar    1  UNL1       -0.0006
     11 C         139.9757  137.7632  164.8260 C.ar    1  UNL1       -0.0031
     12 C         140.2672  138.9841  165.6474 C.ar    1  UNL1       -0.0089
     13 C         143.7980  140.0490  164.1813 C.3     1  UNL1        0.0276
     14 C         145.1183  139.4001  164.4737 C.3     1  UNL1        0.0051
     15 C         139.2845  139.4429  166.6837 C.3     1  UNL1        0.0276
     16 C         137.9574  138.7562  166.8149 C.3     1  UNL1        0.0051
     17 C         143.4819  141.9158  169.7366 C.2     1  UNL1        0.3790
     18 N         144.6568  142.7860  170.0716 N.pl3   1  UNL1       -0.1311
     19 H         145.1023  142.6968  170.9449 H       1  UNL1        0.3060
     20 N         142.9857  140.9097  170.7324 N.pl3   1  UNL1       -0.2637
     21 H         143.5885  140.2042  171.0614 H       1  UNL1        0.2586
     22 C         140.5153  140.1160  170.6014 C.3     1  UNL1        0.0464
     23 C         141.5713  140.9784  171.2269 C.3     1  UNL1        0.1739
@<TRIPOS>BOND
     1    22    23    1
     2    23    20    1
     3    20    17    1
     4    17    18    2
     5    17     1    1
     6     1     2   am
     7     2     3    2
     8     2     4   am
     9     4     7    1
    10     7     8   ar
    11     8    13    1
    12    13    14    1
    13     8     9   ar
    14     9    10   ar
    15    10    11   ar
    16    11    12   ar
    17    12    15    1
    18    15    16    1
    19    12     7   ar
    20    20    21    1
    21    18    19    1
    22     1     5    1
    23     4     6    1
@<TRIPOS>MOLECULE
*****
 23 23 0 0 0
SMALL
GASTEIGER

@<TRIPOS>ATOM
      1 N         142.8160  142.0318  168.3910 N.am    1  UNL1       -0.1579
      2 C         142.5116  140.8123  167.5723 C.2     1  UNL1        0.3686
      3 O         142.8635  139.4510  168.0952 O.2     1  UNL1       -0.2332
      4 N         141.8554  140.9540  166.2310 N.am    1  UNL1       -0.2556
      5 H         142.5850  142.9252  168.0479 H       1  UNL1        0.2558
      6 H         141.6245  141.8474  165.8879 H       1  UNL1        0.1578
      7 C         141.5511  139.7345  165.4124 C.ar    1  UNL1        0.0448
      8 C         140.2732  138.9813  165.6352 C.ar    1  UNL1       -0.0089
      9 C         139.9689  137.7618  164.8166 C.ar    1  UNL1       -0.0031
     10 C         140.9424  137.2954  163.7751 C.ar    1  UNL1       -0.0006
     11 C         142.2203  138.0486  163.5523 C.ar    1  UNL1       -0.0031
     12 C         142.5246  139.2681  164.3709 C.ar    1  UNL1       -0.0089
     13 C         139.2996  139.4476  166.6767 C.3     1  UNL1        0.0276
     14 C         137.9851  138.7445  166.8429 C.3     1  UNL1        0.0051
     15 C         143.8026  140.0213  164.1480 C.3     1  UNL1        0.0276
     16 C         145.1150  139.3991  164.5229 C.3     1  UNL1        0.0051
     17 C         143.4722  141.8901  169.7324 C.2     1  UNL1        0.3790
     18 N         144.6489  142.7503  170.0863 N.pl3   1  UNL1       -0.1311
     19 H         145.0796  142.6573  170.9667 H       1  UNL1        0.3060
     20 N         142.9516  140.8881  170.7199 N.pl3   1  UNL1       -0.2637
     21 H         143.5380  140.1673  171.0454 H       1  UNL1        0.2586
     22 C         140.4775  140.1010  170.6232 C.3     1  UNL1        0.0464
     23 C         141.5377  140.9843  171.2113 C.3     1  UNL1        0.1739
@<TRIPOS>BOND
     1    22    23    1
     2    23    20    1
     3    20    17    1
     4    17    18    2
     5    17     1    1
     6     1     2   am
     7     2     3    2
     8     2     4   am
     9     4     7    1
    10     7     8   ar
    11     8    13    1
    12    13    14    1
    13     8     9   ar
    14     9    10   ar
    15    10    11   ar
    16    11    12   ar
    17    12    15    1
    18    15    16    1
    19    12     7   ar
    20    20    21    1
    21    18    19    1
    22     1     5    1
    23     4     6    1
@<TRIPOS>MOLECULE
*****
 23 23 0 0 0
SMALL
GASTEIGER

@<TRIPOS>ATOM
      1 N         140.8641  142.6303  168.4341 N.am    1  UNL1       -0.1579
      2 C         142.0550  142.3473  167.5670 C.2     1  UNL1        0.3686
      3 O         143.4355  142.6610  168.0632 O.2     1  UNL1       -0.2332
      4 N         141.8655  141.7507  166.2039 N.am    1  UNL1       -0.2556
      5 H         139.9581  142.4244  168.1085 H       1  UNL1        0.2558
      6 H         140.9595  141.5449  165.8783 H       1  UNL1        0.1578
      7 C         143.0564  141.4678  165.3369 C.ar    1  UNL1        0.0448
      8 C         143.6498  142.5604  164.4978 C.ar    1  UNL1       -0.0089
      9 C         144.8407  142.2774  163.6308 C.ar    1  UNL1       -0.0031
     10 C         145.4382  140.9019  163.6029 C.ar    1  UNL1       -0.0006
     11 C         144.8448  139.8093  164.4420 C.ar    1  UNL1       -0.0031
     12 C         143.6540  140.0923  165.3090 C.ar    1  UNL1       -0.0089
     13 C         143.0522  143.9360  164.5257 C.3     1  UNL1        0.0276
     14 C         143.7137  145.0563  163.7791 C.3     1  UNL1        0.0051
     15 C         143.0606  138.9996  166.1481 C.3     1  UNL1        0.0276
     16 C         143.9326  137.8947  166.6666 C.3     1  UNL1        0.0051
     17 C         141.0537  143.2269  169.7973 C.2     1  UNL1        0.3790
     18 N         140.2929  144.4587  170.1892 N.pl3   1  UNL1       -0.1311
     19 H         140.4173  144.8503  171.0839 H       1  UNL1        0.3060
     20 N         142.0041  142.5916  170.7684 N.pl3   1  UNL1       -0.2637
     21 H         142.7186  143.1287  171.1809 H       1  UNL1        0.2586
     22 C         142.8047  140.1333  170.5120 C.3     1  UNL1        0.0464
     23 C         141.8657  141.1379  171.1112 C.3     1  UNL1        0.1739
@<TRIPOS>BOND
     1    22    23    1
     2    23    20    1
     3    20    17    1
     4    17    18    2
     5    17     1    1
     6     1     2   am
     7     2     3    2
     8     2     4   am
     9     4     7    1
    10     7     8   ar
    11     8    13    1
    12    13    14    1
    13     8     9   ar
    14     9    10   ar
    15    10    11   ar
    16    11    12   ar
    17    12    15    1
    18    15    16    1
    19    12     7   ar
    20    20    21    1
    21    18    19    1
    22     1     5    1
    23     4     6    1
@<TRIPOS>MOLECULE
*****
 23 23 0 0 0
SMALL
GASTEIGER

@<TRIPOS>ATOM
      1 N         140.6565  142.5389  168.1584 N.am    1  UNL1       -0.1579
      2 C         141.9124  142.2546  167.3891 C.2     1  UNL1        0.3686
      3 O         143.2462  142.3498  168.0690 O.2     1  UNL1       -0.2332
      4 N         141.8346  141.8750  165.9401 N.am    1  UNL1       -0.2556
      5 H         139.7811  142.4764  167.7123 H       1  UNL1        0.2558
      6 H         140.9592  141.8125  165.4939 H       1  UNL1        0.1578
      7 C         143.0905  141.5907  165.1707 C.ar    1  UNL1        0.0448
      8 C         143.6441  140.1973  165.1272 C.ar    1  UNL1       -0.0089
      9 C         144.9001  139.9130  164.3579 C.ar    1  UNL1       -0.0031
     10 C         145.6023  141.0220  163.6321 C.ar    1  UNL1       -0.0006
     11 C         145.0487  142.4154  163.6757 C.ar    1  UNL1       -0.0031
     12 C         143.7928  142.6997  164.4450 C.ar    1  UNL1       -0.0089
     13 C         142.9419  139.0882  165.8530 C.3     1  UNL1        0.0276
     14 C         143.7380  138.0486  166.5847 C.3     1  UNL1        0.0051
     15 C         143.2391  144.0932  164.4885 C.3     1  UNL1        0.0276
     16 C         143.6475  145.0952  163.4496 C.3     1  UNL1        0.0051
     17 C         140.7343  142.9185  169.6076 C.2     1  UNL1        0.3790
     18 N         140.2269  144.2552  170.0611 N.pl3   1  UNL1       -0.1311
     19 H         140.2780  144.5043  171.0122 H       1  UNL1        0.3060
     20 N         141.3197  141.9613  170.6032 N.pl3   1  UNL1       -0.2637
     21 H         141.9707  142.2807  171.2691 H       1  UNL1        0.2586
     22 C         141.7945  139.4989  169.9241 C.3     1  UNL1        0.0464
     23 C         140.9132  140.5176  170.5841 C.3     1  UNL1        0.1739
@<TRIPOS>BOND
     1    22    23    1
     2    23    20    1
     3    20    17    1
     4    17    18    2
     5    17     1    1
     6     1     2   am
     7     2     3    2
     8     2     4   am
     9     4     7    1
    10     7     8   ar
    11     8    13    1
    12    13    14    1
    13     8     9   ar
    14     9    10   ar
    15    10    11   ar
    16    11    12   ar
    17    12    15    1
    18    15    16    1
    19    12     7   ar
    20    20    21    1
    21    18    19    1
    22     1     5    1
    23     4     6    1
@<TRIPOS>MOLECULE
*****
 23 23 0 0 0
SMALL
GASTEIGER

@<TRIPOS>ATOM
      1 N         143.7663  141.7242  164.0663 N.am    1  UNL1       -0.1579
      2 C         143.0989  141.1673  165.2888 C.2     1  UNL1        0.3686
      3 O         143.5833  139.8798  165.8870 O.2     1  UNL1       -0.2332
      4 N         141.9470  141.8978  165.9130 N.am    1  UNL1       -0.2556
      5 H         143.4484  142.5692  163.6737 H       1  UNL1        0.2558
      6 H         141.6291  142.7428  165.5203 H       1  UNL1        0.1578
      7 C         141.2796  141.3408  167.1354 C.ar    1  UNL1        0.0448
      8 C         141.8722  141.5865  168.4912 C.ar    1  UNL1       -0.0089
      9 C         141.2048  141.0296  169.7137 C.ar    1  UNL1       -0.0031
     10 C         139.9447  140.2270  169.5802 C.ar    1  UNL1       -0.0006
     11 C         139.3520  139.9813  168.2244 C.ar    1  UNL1       -0.0031
     12 C         140.0195  140.5382  167.0020 C.ar    1  UNL1       -0.0089
     13 C         143.1324  142.3892  168.6247 C.3     1  UNL1        0.0276
     14 C         143.9218  142.3396  169.8992 C.3     1  UNL1        0.0051
     15 C         139.4268  140.2925  165.6461 C.3     1  UNL1        0.0276
     16 C         138.2708  139.3490  165.4927 C.3     1  UNL1        0.0051
     17 C         144.9182  140.9937  163.4421 C.2     1  UNL1        0.3790
     18 N         146.1690  141.7371  163.0778 N.pl3   1  UNL1       -0.1311
     19 H         146.9250  141.2576  162.6682 H       1  UNL1        0.3060
     20 N         144.8192  139.5197  163.1823 N.pl3   1  UNL1       -0.2637
     21 H         145.4951  138.9078  163.5537 H       1  UNL1        0.2586
     22 C         143.9460  137.8850  161.3614 C.3     1  UNL1        0.0464
     23 C         143.6902  138.9779  162.3565 C.3     1  UNL1        0.1739
@<TRIPOS>BOND
     1    22    23    1
     2    23    20    1
     3    20    17    1
     4    17    18    2
     5    17     1    1
     6     1     2   am
     7     2     3    2
     8     2     4   am
     9     4     7    1
    10     7     8   ar
    11     8    13    1
    12    13    14    1
    13     8     9   ar
    14     9    10   ar
    15    10    11   ar
    16    11    12   ar
    17    12    15    1
    18    15    16    1
    19    12     7   ar
    20    20    21    1
    21    18    19    1
    22     1     5    1
    23     4     6    1
@<TRIPOS>MOLECULE
*****
 23 23 0 0 0
SMALL
GASTEIGER

@<TRIPOS>ATOM
      1 N         142.1868  139.8807  168.5443 N.am    1  UNL1       -0.1579
      2 C         141.0145  139.9454  167.6108 C.2     1  UNL1        0.3686
      3 O         139.6574  139.5111  168.0797 O.2     1  UNL1       -0.2332
      4 N         141.1992  140.4443  166.2083 N.am    1  UNL1       -0.2556
      5 H         143.0774  140.1658  168.2366 H       1  UNL1        0.2558
      6 H         142.0899  140.7294  165.9006 H       1  UNL1        0.1578
      7 C         140.0269  140.5090  165.2747 C.ar    1  UNL1        0.0448
      8 C         139.3058  141.8075  165.0652 C.ar    1  UNL1       -0.0089
      9 C         138.1335  141.8721  164.1316 C.ar    1  UNL1       -0.0031
     10 C         137.6824  140.6384  163.4076 C.ar    1  UNL1       -0.0006
     11 C         138.4035  139.3399  163.6171 C.ar    1  UNL1       -0.0031
     12 C         139.5758  139.2753  164.5507 C.ar    1  UNL1       -0.0089
     13 C         139.7569  143.0413  165.7892 C.3     1  UNL1        0.0276
     14 C         139.1796  144.3773  165.4262 C.3     1  UNL1        0.0051
     15 C         140.2970  137.9767  164.7602 C.3     1  UNL1        0.0276
     16 C         140.9598  137.2916  163.6021 C.3     1  UNL1        0.0051
     17 C         142.0020  139.3817  169.9468 C.2     1  UNL1        0.3790
     18 N         142.8880  138.2947  170.4790 N.pl3   1  UNL1       -0.1311
     19 H         142.7668  137.9673  171.3995 H       1  UNL1        0.3060
     20 N         140.9311  139.9698  170.8171 N.pl3   1  UNL1       -0.2637
     21 H         140.2627  139.3832  171.2395 H       1  UNL1        0.2586
     22 C         139.8704  142.2871  170.3120 C.3     1  UNL1        0.0464
     23 C         140.8786  141.4516  171.0438 C.3     1  UNL1        0.1739
@<TRIPOS>BOND
     1    22    23    1
     2    23    20    1
     3    20    17    1
     4    17    18    2
     5    17     1    1
     6     1     2   am
     7     2     3    2
     8     2     4   am
     9     4     7    1
    10     7     8   ar
    11     8    13    1
    12    13    14    1
    13     8     9   ar
    14     9    10   ar
    15    10    11   ar
    16    11    12   ar
    17    12    15    1
    18    15    16    1
    19    12     7   ar
    20    20    21    1
    21    18    19    1
    22     1     5    1
    23     4     6    1
@<TRIPOS>MOLECULE
*****
 23 23 0 0 0
SMALL
GASTEIGER

@<TRIPOS>ATOM
      1 N         143.0409  139.1195  168.3808 N.am    1  UNL1       -0.1579
      2 C         142.8036  139.3354  166.9155 C.2     1  UNL1        0.3686
      3 O         142.2107  140.6264  166.4340 O.2     1  UNL1       -0.2332
      4 N         143.1593  138.2604  165.9317 N.am    1  UNL1       -0.2556
      5 H         143.4301  138.2722  168.6968 H       1  UNL1        0.2558
      6 H         143.5485  137.4131  166.2478 H       1  UNL1        0.1578
      7 C         142.9221  138.4764  164.4664 C.ar    1  UNL1        0.0448
      8 C         141.6853  137.9285  163.8182 C.ar    1  UNL1       -0.0089
      9 C         141.4481  138.1445  162.3529 C.ar    1  UNL1       -0.0031
     10 C         142.4476  138.9082  161.5358 C.ar    1  UNL1       -0.0006
     11 C         143.6843  139.4561  162.1841 C.ar    1  UNL1       -0.0031
     12 C         143.9215  139.2401  163.6494 C.ar    1  UNL1       -0.0089
     13 C         140.6857  137.1647  164.6352 C.3     1  UNL1        0.0276
     14 C         139.2764  137.6642  164.7550 C.3     1  UNL1        0.0051
     15 C         145.1584  139.7880  164.2976 C.3     1  UNL1        0.0276
     16 C         145.6411  141.1647  163.9486 C.3     1  UNL1        0.0051
     17 C         142.6852  140.1946  169.3646 C.2     1  UNL1        0.3790
     18 N         143.5062  140.3760  170.6067 N.pl3   1  UNL1       -0.1311
     19 H         143.2728  141.0816  171.2524 H       1  UNL1        0.3060
     20 N         141.5085  141.0882  169.1061 N.pl3   1  UNL1       -0.2637
     21 H         140.6586  140.7041  168.7906 H       1  UNL1        0.2586
     22 C         140.3932  143.4194  169.3734 C.3     1  UNL1        0.0464
     23 C         141.6265  142.5669  169.3284 C.3     1  UNL1        0.1739
@<TRIPOS>BOND
     1    22    23    1
     2    23    20    1
     3    20    17    1
     4    17    18    2
     5    17     1    1
     6     1     2   am
     7     2     3    2
     8     2     4   am
     9     4     7    1
    10     7     8   ar
    11     8    13    1
    12    13    14    1
    13     8     9   ar
    14     9    10   ar
    15    10    11   ar
    16    11    12   ar
    17    12    15    1
    18    15    16    1
    19    12     7   ar
    20    20    21    1
    21    18    19    1
    22     1     5    1
    23     4     6    1
