@<TRIPOS>MOLECULE
*****
 33 37 0 0 0
SMALL
GASTEIGER

@<TRIPOS>ATOM
      1 C         142.3627  142.9681  162.9784 C.3     1  UNL1        0.0545
      2 C         143.8390  143.1167  163.1985 C.3     1  UNL1        0.0162
      3 C         144.3801  141.7849  163.6270 C.3     1  UNL1        0.0095
      4 C         145.6269  141.0537  164.0278 C.3     1  UNL1        0.0005
      5 C         145.2557  139.6300  164.3202 C.3     1  UNL1        0.0005
      6 C         143.7794  139.4814  164.1000 C.3     1  UNL1        0.0087
      7 C         143.2383  140.8132  163.6716 C.3     1  UNL1        0.0704
      8 C         141.9914  141.5444  163.2707 C.3     1  UNL1        0.0243
      9 C         142.0964  139.8415  163.7162 C.2     1  UNL1        0.2250
     10 O         141.8302  138.9428  162.5451 O.2     1  UNL1       -0.2749
     11 N         141.2207  139.7685  164.9319 N.am    1  UNL1       -0.2750
     12 C         140.0789  138.7969  164.9765 C.3     1  UNL1        0.1000
     13 C         139.2033  138.7240  166.1922 C.3     1  UNL1        0.0670
     14 C         139.4695  139.6227  167.3633 C.ar    1  UNL1        0.0588
     15 N         138.5938  139.5498  168.5790 N.ar    1  UNL1       -0.2421
     16 C         138.8600  140.4485  169.7500 C.ar    1  UNL1        0.1736
     17 C         140.0019  141.4202  169.7054 C.ar    1  UNL1        0.3087
     18 C         140.8775  141.4931  168.4897 C.ar    1  UNL1        0.0755
     19 C         140.6113  140.5944  167.3187 C.ar    1  UNL1        0.0174
     20 C         141.4869  140.6673  166.1030 C.3     1  UNL1        0.1215
     21 N         140.2681  142.3189  170.8765 N.pl3   1  UNL1        0.0825
     22 O         139.3050  143.4189  171.2118 O.2     1  UNL1        0.0415
     23 O         141.4974  142.1177  171.7122 O.co2   1  UNL1       -0.5760
     24 N         141.4226  144.0527  162.5424 N.3     1  UNL1       -0.2975
     25 H         141.9264  144.9345  162.6368 H       1  UNL1        0.1232
     26 C         138.8259  144.0932  162.4701 C.3     1  UNL1        0.1591
     27 C         137.5095  144.2697  163.1672 C.3     1  UNL1        0.1729
     28 O         137.4735  144.5823  164.6338 O.3     1  UNL1       -0.3511
     29 C         138.7539  144.7183  165.4034 C.3     1  UNL1        0.1437
     30 C         140.0703  144.5418  164.7062 C.3     1  UNL1        0.0503
     31 C         140.1063  144.2292  163.2395 C.3     1  UNL1        0.0865
     32 C         138.8159  142.3550  160.5391 C.3     1  UNL1        0.1742
     33 O         138.8619  143.7806  161.0035 O.3     1  UNL1       -0.3496
@<TRIPOS>UNITY_ATOM_ATTR
21 1
charge 1
23 1
charge -1
@<TRIPOS>BOND
     1    32    33    1
     2    33    26    1
     3    26    27    1
     4    27    28    1
     5    28    29    1
     6    29    30    1
     7    30    31    1
     8    31    24    1
     9     1    24    1
    10     1     2    1
    11     3     2    1
    12     3     4    1
    13     4     5    1
    14     5     6    1
    15     6     7    1
    16     7     9    1
    17     9    10    2
    18     9    11   am
    19    11    12    1
    20    12    13    1
    21    13    14    1
    22    14    15   ar
    23    15    16   ar
    24    16    17   ar
    25    17    21    1
    26    21    22    2
    27    21    23    1
    28    17    18   ar
    29    18    19   ar
    30    19    20    1
    31     7     8    1
    32    31    26    1
    33     8     1    1
    34     7     3    1
    35    20    11    1
    36    19    14   ar
    37    24    25    1
@<TRIPOS>MOLECULE
*****
 33 37 0 0 0
SMALL
GASTEIGER

@<TRIPOS>ATOM
      1 C         139.5220  139.0980  166.2723 C.3     1  UNL1        0.0545
      2 C         138.4829  139.1634  167.3521 C.3     1  UNL1        0.0162
      3 C         139.0651  139.9176  168.5106 C.3     1  UNL1        0.0095
      4 C         138.7827  140.4242  169.8939 C.3     1  UNL1        0.0005
      5 C         140.0072  141.1380  170.3851 C.3     1  UNL1        0.0005
      6 C         141.0463  141.0726  169.3053 C.3     1  UNL1        0.0087
      7 C         140.4641  140.3184  168.1468 C.3     1  UNL1        0.0704
      8 C         140.7464  139.8118  166.7635 C.3     1  UNL1        0.0243
      9 C         141.8630  140.7191  167.7830 C.2     1  UNL1        0.2250
     10 O         143.0281  140.1279  168.5199 O.2     1  UNL1       -0.2749
     11 N         142.0968  141.7110  166.6823 N.am    1  UNL1       -0.2750
     12 C         143.4958  142.1117  166.3185 C.3     1  UNL1        0.1000
     13 C         143.7295  143.1036  165.2178 C.3     1  UNL1        0.0670
     14 C         142.5644  143.6947  164.4809 C.ar    1  UNL1        0.0588
     15 N         142.7982  144.6866  163.3802 N.ar    1  UNL1       -0.2421
     16 C         141.6331  145.2778  162.6434 C.ar    1  UNL1        0.1736
     17 C         140.2341  144.8770  163.0072 C.ar    1  UNL1        0.3087
     18 C         140.0003  143.8852  164.1079 C.ar    1  UNL1        0.0755
     19 C         141.1655  143.2940  164.8447 C.ar    1  UNL1        0.0174
     20 C         140.9317  142.3021  165.9454 C.3     1  UNL1        0.1215
     21 N         139.0689  145.4682  162.2703 N.pl3   1  UNL1        0.0825
     22 O         139.2815  146.6159  161.3283 O.2     1  UNL1        0.0415
     23 O         137.6912  144.9115  162.4756 O.co2   1  UNL1       -0.5760
     24 N         139.3644  138.4351  164.9359 N.3     1  UNL1       -0.2975
     25 H         140.2861  138.0903  164.6677 H       1  UNL1        0.1232
     26 C         139.1634  138.7853  162.3694 C.3     1  UNL1        0.1591
     27 C         138.6368  139.5665  161.2022 C.3     1  UNL1        0.1729
     28 O         137.7846  140.7788  161.4343 O.3     1  UNL1       -0.3511
     29 C         137.4589  141.2099  162.8336 C.3     1  UNL1        0.1437
     30 C         137.9855  140.4287  164.0008 C.3     1  UNL1        0.0503
     31 C         138.8378  139.2163  163.7687 C.3     1  UNL1        0.0865
     32 C         141.4992  137.7198  161.9706 C.3     1  UNL1        0.1742
     33 O         140.0157  137.5729  162.1373 O.3     1  UNL1       -0.3496
@<TRIPOS>UNITY_ATOM_ATTR
21 1
charge 1
23 1
charge -1
@<TRIPOS>BOND
     1    32    33    1
     2    33    26    1
     3    26    27    1
     4    27    28    1
     5    28    29    1
     6    29    30    1
     7    30    31    1
     8    31    24    1
     9     1    24    1
    10     1     2    1
    11     3     2    1
    12     3     4    1
    13     4     5    1
    14     5     6    1
    15     6     7    1
    16     7     9    1
    17     9    10    2
    18     9    11   am
    19    11    12    1
    20    12    13    1
    21    13    14    1
    22    14    15   ar
    23    15    16   ar
    24    16    17   ar
    25    17    21    1
    26    21    22    2
    27    21    23    1
    28    17    18   ar
    29    18    19   ar
    30    19    20    1
    31     7     8    1
    32    31    26    1
    33     8     1    1
    34     7     3    1
    35    20    11    1
    36    19    14   ar
    37    24    25    1
@<TRIPOS>MOLECULE
*****
 33 37 0 0 0
SMALL
GASTEIGER

@<TRIPOS>ATOM
      1 C         141.1920  141.8176  162.0536 C.3     1  UNL1        0.0545
      2 C         141.0209  143.2955  161.8629 C.3     1  UNL1        0.0162
      3 C         139.7086  143.6925  162.4715 C.3     1  UNL1        0.0095
      4 C         138.7918  144.8513  162.7299 C.3     1  UNL1        0.0005
      5 C         137.5853  144.3348  163.4563 C.3     1  UNL1        0.0005
      6 C         137.7565  142.8568  163.6469 C.3     1  UNL1        0.0087
      7 C         139.0687  142.4599  163.0383 C.3     1  UNL1        0.0704
      8 C         139.9855  141.3011  162.7800 C.3     1  UNL1        0.0243
      9 C         138.4289  141.2273  163.6051 C.2     1  UNL1        0.2250
     10 O         137.4811  140.4213  162.7672 O.2     1  UNL1       -0.2749
     11 N         138.7369  140.8005  165.0098 N.am    1  UNL1       -0.2750
     12 C         138.0970  139.5679  165.5765 C.3     1  UNL1        0.1000
     13 C         138.4050  139.1413  166.9812 C.3     1  UNL1        0.0670
     14 C         139.3528  139.9472  167.8191 C.ar    1  UNL1        0.0588
     15 N         139.6608  139.5205  169.2238 N.ar    1  UNL1       -0.2421
     16 C         140.6086  140.3264  170.0617 C.ar    1  UNL1        0.1736
     17 C         141.2485  141.5591  169.4949 C.ar    1  UNL1        0.3087
     18 C         140.9405  141.9858  168.0902 C.ar    1  UNL1        0.0755
     19 C         139.9927  141.1798  167.2523 C.ar    1  UNL1        0.0174
     20 C         139.6847  141.6065  165.8477 C.3     1  UNL1        0.1215
     21 N         142.1963  142.3651  170.3328 N.pl3   1  UNL1        0.0825
     22 O         143.4001  143.0004  169.7026 O.2     1  UNL1        0.0415
     23 O         141.9403  142.5356  171.8009 O.co2   1  UNL1       -0.5760
     24 N         142.3640  140.9996  161.5978 N.3     1  UNL1       -0.2975
     25 H         142.0084  140.0667  161.3889 H       1  UNL1        0.1232
     26 C         143.6413  139.6120  163.3846 C.3     1  UNL1        0.1591
     27 C         144.8264  139.4320  164.2864 C.3     1  UNL1        0.1729
     28 O         145.9190  140.4594  164.3033 O.3     1  UNL1       -0.3511
     29 C         145.8267  141.6670  163.4182 C.3     1  UNL1        0.1437
     30 C         144.6417  141.8471  162.5164 C.3     1  UNL1        0.0503
     31 C         143.5490  140.8196  162.4996 C.3     1  UNL1        0.0865
     32 C         141.6364  138.4405  164.5498 C.3     1  UNL1        0.1742
     33 O         142.5486  138.5846  163.3678 O.3     1  UNL1       -0.3496
@<TRIPOS>UNITY_ATOM_ATTR
21 1
charge 1
23 1
charge -1
@<TRIPOS>BOND
     1    32    33    1
     2    33    26    1
     3    26    27    1
     4    27    28    1
     5    28    29    1
     6    29    30    1
     7    30    31    1
     8    31    24    1
     9     1    24    1
    10     1     2    1
    11     3     2    1
    12     3     4    1
    13     4     5    1
    14     5     6    1
    15     6     7    1
    16     7     9    1
    17     9    10    2
    18     9    11   am
    19    11    12    1
    20    12    13    1
    21    13    14    1
    22    14    15   ar
    23    15    16   ar
    24    16    17   ar
    25    17    21    1
    26    21    22    2
    27    21    23    1
    28    17    18   ar
    29    18    19   ar
    30    19    20    1
    31     7     8    1
    32    31    26    1
    33     8     1    1
    34     7     3    1
    35    20    11    1
    36    19    14   ar
    37    24    25    1
@<TRIPOS>MOLECULE
*****
 33 37 0 0 0
SMALL
GASTEIGER

@<TRIPOS>ATOM
      1 C         140.6576  137.5884  164.0404 C.3     1  UNL1        0.0545
      2 C         139.2264  137.3994  164.4475 C.3     1  UNL1        0.0162
      3 C         138.9798  138.2283  165.6732 C.3     1  UNL1        0.0095
      4 C         137.9429  138.6238  166.6823 C.3     1  UNL1        0.0005
      5 C         138.5810  139.5695  167.6563 C.3     1  UNL1        0.0005
      6 C         140.0122  139.7584  167.2492 C.3     1  UNL1        0.0087
      7 C         140.2587  138.9295  166.0235 C.3     1  UNL1        0.0704
      8 C         141.2956  138.5340  165.0144 C.3     1  UNL1        0.0243
      9 C         141.5376  139.6307  166.3738 C.2     1  UNL1        0.2250
     10 O         142.4530  139.0482  167.4096 O.2     1  UNL1       -0.2749
     11 N         141.9012  140.9145  165.6884 N.am    1  UNL1       -0.2750
     12 C         143.1801  141.6157  166.0387 C.3     1  UNL1        0.1000
     13 C         143.5436  142.8994  165.3532 C.3     1  UNL1        0.0670
     14 C         142.6282  143.4820  164.3175 C.ar    1  UNL1        0.0588
     15 N         142.9918  144.7658  163.6320 N.ar    1  UNL1       -0.2421
     16 C         142.0764  145.3483  162.5963 C.ar    1  UNL1        0.1736
     17 C         140.7975  144.6470  162.2460 C.ar    1  UNL1        0.3087
     18 C         140.4340  143.3633  162.9315 C.ar    1  UNL1        0.0755
     19 C         141.3493  142.7808  163.9672 C.ar    1  UNL1        0.0174
     20 C         140.9858  141.4971  164.6526 C.3     1  UNL1        0.1215
     21 N         139.8821  145.2296  161.2103 N.pl3   1  UNL1        0.0825
     22 O         139.5749  144.4576  159.9614 O.2     1  UNL1        0.0415
     23 O         139.2739  146.5841  161.4235 O.co2   1  UNL1       -0.5760
     24 N         141.3324  136.9447  162.8654 N.3     1  UNL1       -0.2975
     25 H         142.0729  136.3515  163.2398 H       1  UNL1        0.1232
     26 C         141.1065  138.3734  160.7073 C.3     1  UNL1        0.1591
     27 C         141.7308  139.2249  159.6418 C.3     1  UNL1        0.1729
     28 O         143.2052  139.4992  159.6691 O.3     1  UNL1       -0.3511
     29 C         144.0555  138.9220  160.7618 C.3     1  UNL1        0.1437
     30 C         143.4312  138.0705  161.8273 C.3     1  UNL1        0.0503
     31 C         141.9567  137.7962  161.8000 C.3     1  UNL1        0.0865
     32 C         138.6671  139.1356  161.1745 C.3     1  UNL1        0.1742
     33 O         139.6321  138.0991  160.6800 O.3     1  UNL1       -0.3496
@<TRIPOS>UNITY_ATOM_ATTR
21 1
charge 1
23 1
charge -1
@<TRIPOS>BOND
     1    32    33    1
     2    33    26    1
     3    26    27    1
     4    27    28    1
     5    28    29    1
     6    29    30    1
     7    30    31    1
     8    31    24    1
     9     1    24    1
    10     1     2    1
    11     3     2    1
    12     3     4    1
    13     4     5    1
    14     5     6    1
    15     6     7    1
    16     7     9    1
    17     9    10    2
    18     9    11   am
    19    11    12    1
    20    12    13    1
    21    13    14    1
    22    14    15   ar
    23    15    16   ar
    24    16    17   ar
    25    17    21    1
    26    21    22    2
    27    21    23    1
    28    17    18   ar
    29    18    19   ar
    30    19    20    1
    31     7     8    1
    32    31    26    1
    33     8     1    1
    34     7     3    1
    35    20    11    1
    36    19    14   ar
    37    24    25    1
@<TRIPOS>MOLECULE
*****
 33 37 0 0 0
SMALL
GASTEIGER

@<TRIPOS>ATOM
      1 C         139.5760  142.2031  163.3911 C.3     1  UNL1        0.0545
      2 C         139.4937  143.7007  163.4065 C.3     1  UNL1        0.0162
      3 C         140.8887  144.2406  163.5177 C.3     1  UNL1        0.0095
      4 C         141.7000  145.4998  163.5959 C.3     1  UNL1        0.0005
      5 C         143.1460  145.1140  163.6976 C.3     1  UNL1        0.0005
      6 C         143.2284  143.6163  163.6823 C.3     1  UNL1        0.0087
      7 C         141.8333  143.0765  163.5711 C.3     1  UNL1        0.0704
      8 C         141.0220  141.8173  163.4928 C.3     1  UNL1        0.0243
      9 C         142.7779  141.9125  163.6244 C.2     1  UNL1        0.2250
     10 O         143.6342  141.5865  162.4368 O.2     1  UNL1       -0.2749
     11 N         142.8660  141.0744  164.8654 N.am    1  UNL1       -0.2750
     12 C         143.8106  139.9104  164.9187 C.3     1  UNL1        0.1000
     13 C         143.8987  139.0724  166.1597 C.3     1  UNL1        0.0670
     14 C         143.0423  139.3984  167.3472 C.ar    1  UNL1        0.0588
     15 N         143.1305  138.5603  168.5882 N.ar    1  UNL1       -0.2421
     16 C         142.2741  138.8864  169.7758 C.ar    1  UNL1        0.1736
     17 C         141.3296  140.0505  169.7224 C.ar    1  UNL1        0.3087
     18 C         141.2414  140.8885  168.4815 C.ar    1  UNL1        0.0755
     19 C         142.0978  140.5624  167.2939 C.ar    1  UNL1        0.0174
     20 C         142.0097  141.4004  166.0530 C.3     1  UNL1        0.1215
     21 N         140.4732  140.3765  170.9099 N.pl3   1  UNL1        0.0825
     22 O         140.8428  141.5177  171.8105 O.2     1  UNL1        0.0415
     23 O         139.2472  139.5612  171.1970 O.co2   1  UNL1       -0.5760
     24 N         138.4160  141.2572  163.2915 N.3     1  UNL1       -0.2975
     25 H         137.6000  141.7533  163.6497 H       1  UNL1        0.1232
     26 C         138.8075  138.6894  163.2366 C.3     1  UNL1        0.1591
     27 C         138.8552  137.3672  163.9434 C.3     1  UNL1        0.1729
     28 O         138.5589  137.2906  165.4118 O.3     1  UNL1       -0.3511
     29 C         138.2150  138.5362  166.1735 C.3     1  UNL1        0.1437
     30 C         138.1674  139.8584  165.4668 C.3     1  UNL1        0.0503
     31 C         138.4637  139.9350  163.9983 C.3     1  UNL1        0.0865
     32 C         140.4350  138.3116  161.2469 C.3     1  UNL1        0.1742
     33 O         139.1038  138.7660  161.7682 O.3     1  UNL1       -0.3496
@<TRIPOS>UNITY_ATOM_ATTR
21 1
charge 1
23 1
charge -1
@<TRIPOS>BOND
     1    32    33    1
     2    33    26    1
     3    26    27    1
     4    27    28    1
     5    28    29    1
     6    29    30    1
     7    30    31    1
     8    31    24    1
     9     1    24    1
    10     1     2    1
    11     3     2    1
    12     3     4    1
    13     4     5    1
    14     5     6    1
    15     6     7    1
    16     7     9    1
    17     9    10    2
    18     9    11   am
    19    11    12    1
    20    12    13    1
    21    13    14    1
    22    14    15   ar
    23    15    16   ar
    24    16    17   ar
    25    17    21    1
    26    21    22    2
    27    21    23    1
    28    17    18   ar
    29    18    19   ar
    30    19    20    1
    31     7     8    1
    32    31    26    1
    33     8     1    1
    34     7     3    1
    35    20    11    1
    36    19    14   ar
    37    24    25    1
@<TRIPOS>MOLECULE
*****
 33 37 0 0 0
SMALL
GASTEIGER

@<TRIPOS>ATOM
      1 C         140.2070  141.8156  161.4199 C.3     1  UNL1        0.0545
      2 C         138.7926  141.3504  161.2385 C.3     1  UNL1        0.0162
      3 C         138.7015  139.9386  161.7370 C.3     1  UNL1        0.0095
      4 C         137.7710  138.7785  161.9330 C.3     1  UNL1        0.0005
      5 C         138.5541  137.6542  162.5437 C.3     1  UNL1        0.0005
      6 C         139.9685  138.1195  162.7251 C.3     1  UNL1        0.0087
      7 C         140.0596  139.5312  162.2265 C.3     1  UNL1        0.0704
      8 C         140.9901  140.6913  162.0305 C.3     1  UNL1        0.0243
      9 C         141.4178  139.1240  162.7160 C.2     1  UNL1        0.2250
     10 O         142.4587  138.6604  161.7405 O.2     1  UNL1       -0.2749
     11 N         141.7350  139.1803  164.1810 N.am    1  UNL1       -0.2750
     12 C         143.0931  138.7730  164.6705 C.3     1  UNL1        0.1000
     13 C         143.4103  138.8294  166.1355 C.3     1  UNL1        0.0670
     14 C         142.3694  139.2930  167.1110 C.ar    1  UNL1        0.0588
     15 N         142.6866  139.3493  168.5760 N.ar    1  UNL1       -0.2421
     16 C         141.6457  139.8129  169.5515 C.ar    1  UNL1        0.1736
     17 C         140.2876  140.2202  169.0619 C.ar    1  UNL1        0.3087
     18 C         139.9704  140.1638  167.5970 C.ar    1  UNL1        0.0755
     19 C         141.0113  139.7002  166.6215 C.ar    1  UNL1        0.0174
     20 C         140.6941  139.6439  165.1565 C.3     1  UNL1        0.1215
     21 N         139.2466  140.6837  170.0374 N.pl3   1  UNL1        0.0825
     22 O         138.0999  139.7850  170.3942 O.2     1  UNL1        0.0415
     23 O         139.3525  142.0461  170.6562 O.co2   1  UNL1       -0.5760
     24 N         140.7442  143.1677  161.0547 N.3     1  UNL1       -0.2975
     25 H         141.1586  143.0792  160.1269 H       1  UNL1        0.1232
     26 C         141.3447  144.8135  162.9732 C.3     1  UNL1        0.1591
     27 C         142.3717  145.4730  163.8451 C.3     1  UNL1        0.1729
     28 O         143.8252  145.1463  163.6706 O.3     1  UNL1       -0.3511
     29 C         144.2517  144.1599  162.6240 C.3     1  UNL1        0.1437
     30 C         143.2247  143.5004  161.7520 C.3     1  UNL1        0.0503
     31 C         141.7712  143.8273  161.9267 C.3     1  UNL1        0.0865
     32 C         139.0980  144.4751  164.2334 C.3     1  UNL1        0.1742
     33 O         139.8912  145.1403  163.1478 O.3     1  UNL1       -0.3496
@<TRIPOS>UNITY_ATOM_ATTR
21 1
charge 1
23 1
charge -1
@<TRIPOS>BOND
     1    32    33    1
     2    33    26    1
     3    26    27    1
     4    27    28    1
     5    28    29    1
     6    29    30    1
     7    30    31    1
     8    31    24    1
     9     1    24    1
    10     1     2    1
    11     3     2    1
    12     3     4    1
    13     4     5    1
    14     5     6    1
    15     6     7    1
    16     7     9    1
    17     9    10    2
    18     9    11   am
    19    11    12    1
    20    12    13    1
    21    13    14    1
    22    14    15   ar
    23    15    16   ar
    24    16    17   ar
    25    17    21    1
    26    21    22    2
    27    21    23    1
    28    17    18   ar
    29    18    19   ar
    30    19    20    1
    31     7     8    1
    32    31    26    1
    33     8     1    1
    34     7     3    1
    35    20    11    1
    36    19    14   ar
    37    24    25    1
@<TRIPOS>MOLECULE
*****
 33 37 0 0 0
SMALL
GASTEIGER

@<TRIPOS>ATOM
      1 C         138.7654  140.9420  162.4571 C.3     1  UNL1        0.0545
      2 C         138.2166  139.5572  162.6340 C.3     1  UNL1        0.0162
      3 C         139.3260  138.6790  163.1319 C.3     1  UNL1        0.0095
      4 C         139.6725  137.2805  163.5489 C.3     1  UNL1        0.0005
      5 C         141.1211  137.2580  163.9375 C.3     1  UNL1        0.0005
      6 C         141.6700  138.6428  163.7607 C.3     1  UNL1        0.0087
      7 C         140.5606  139.5210  163.2628 C.3     1  UNL1        0.0704
      8 C         140.2141  140.9196  162.8457 C.3     1  UNL1        0.0243
      9 C         141.7950  140.3630  163.3936 C.2     1  UNL1        0.2250
     10 O         142.6365  140.6531  162.1862 O.2     1  UNL1       -0.2749
     11 N         142.1881  140.9149  164.7319 N.am    1  UNL1       -0.2750
     12 C         143.4225  141.7568  164.8628 C.3     1  UNL1        0.1000
     13 C         143.8156  142.3087  166.2010 C.3     1  UNL1        0.0670
     14 C         142.9741  142.0186  167.4084 C.ar    1  UNL1        0.0588
     15 N         143.3672  142.5705  168.7467 N.ar    1  UNL1       -0.2421
     16 C         142.5258  142.2803  169.9541 C.ar    1  UNL1        0.1736
     17 C         141.2912  141.4383  169.8232 C.ar    1  UNL1        0.3087
     18 C         140.8982  140.8865  168.4850 C.ar    1  UNL1        0.0755
     19 C         141.7397  141.1766  167.2776 C.ar    1  UNL1        0.0174
     20 C         141.3467  140.6247  165.9393 C.3     1  UNL1        0.1215
     21 N         140.4498  141.1482  171.0306 N.pl3   1  UNL1        0.0825
     22 O         140.3995  142.1302  172.1633 O.2     1  UNL1        0.0415
     23 O         139.6586  139.8760  171.1053 O.co2   1  UNL1       -0.5760
     24 N         138.0000  142.1390  161.9761 N.3     1  UNL1       -0.2975
     25 H         137.4776  141.8427  161.1517 H       1  UNL1        0.1232
     26 C         138.7371  144.5674  162.5323 C.3     1  UNL1        0.1591
     27 C         139.4671  145.8222  162.1544 C.3     1  UNL1        0.1729
     28 O         140.1900  145.9032  160.8426 O.3     1  UNL1       -0.3511
     29 C         140.1829  144.7295  159.9086 C.3     1  UNL1        0.1437
     30 C         139.4529  143.4748  160.2864 C.3     1  UNL1        0.0503
     31 C         138.7300  143.3938  161.5983 C.3     1  UNL1        0.0865
     32 C         138.7892  144.4833  165.1285 C.3     1  UNL1        0.1742
     33 O         138.0143  144.4864  163.8441 O.3     1  UNL1       -0.3496
@<TRIPOS>UNITY_ATOM_ATTR
21 1
charge 1
23 1
charge -1
@<TRIPOS>BOND
     1    32    33    1
     2    33    26    1
     3    26    27    1
     4    27    28    1
     5    28    29    1
     6    29    30    1
     7    30    31    1
     8    31    24    1
     9     1    24    1
    10     1     2    1
    11     3     2    1
    12     3     4    1
    13     4     5    1
    14     5     6    1
    15     6     7    1
    16     7     9    1
    17     9    10    2
    18     9    11   am
    19    11    12    1
    20    12    13    1
    21    13    14    1
    22    14    15   ar
    23    15    16   ar
    24    16    17   ar
    25    17    21    1
    26    21    22    2
    27    21    23    1
    28    17    18   ar
    29    18    19   ar
    30    19    20    1
    31     7     8    1
    32    31    26    1
    33     8     1    1
    34     7     3    1
    35    20    11    1
    36    19    14   ar
    37    24    25    1
@<TRIPOS>MOLECULE
*****
 33 37 0 0 0
SMALL
GASTEIGER

@<TRIPOS>ATOM
      1 C         142.0275  142.4719  162.0054 C.3     1  UNL1        0.0545
      2 C         141.7116  143.9339  161.8938 C.3     1  UNL1        0.0162
      3 C         140.2910  144.1359  162.3312 C.3     1  UNL1        0.0095
      4 C         139.2178  145.1643  162.5326 C.3     1  UNL1        0.0005
      5 C         137.9925  144.4626  163.0389 C.3     1  UNL1        0.0005
      6 C         138.3085  143.0005  163.1505 C.3     1  UNL1        0.0087
      7 C         139.7290  142.7985  162.7131 C.3     1  UNL1        0.0704
      8 C         140.8023  141.7702  162.5117 C.3     1  UNL1        0.0243
      9 C         139.1671  141.4613  163.0949 C.2     1  UNL1        0.2250
     10 O         138.5612  140.5754  162.0470 O.2     1  UNL1       -0.2749
     11 N         139.2110  141.0098  164.5248 N.am    1  UNL1       -0.2750
     12 C         138.6491  139.6725  164.9066 C.3     1  UNL1        0.1000
     13 C         138.6930  139.2212  166.3364 C.3     1  UNL1        0.0670
     14 C         139.2989  140.1071  167.3843 C.ar    1  UNL1        0.0588
     15 N         139.3428  139.6556  168.8141 N.ar    1  UNL1       -0.2421
     16 C         139.9487  140.5415  169.8620 C.ar    1  UNL1        0.1736
     17 C         140.5107  141.8789  169.4801 C.ar    1  UNL1        0.3087
     18 C         140.4667  142.3302  168.0503 C.ar    1  UNL1        0.0755
     19 C         139.8608  141.4443  167.0024 C.ar    1  UNL1        0.0174
     20 C         139.8169  141.8957  165.5727 C.3     1  UNL1        0.1215
     21 N         141.1165  142.7648  170.5280 N.pl3   1  UNL1        0.0825
     22 O         141.6667  142.1669  171.7889 O.2     1  UNL1        0.0415
     23 O         141.1722  144.2486  170.3150 O.co2   1  UNL1       -0.5760
     24 N         143.3386  141.8250  161.6696 N.3     1  UNL1       -0.2975
     25 H         143.8201  142.4524  161.0254 H       1  UNL1        0.1232
     26 C         143.8830  139.2894  161.8254 C.3     1  UNL1        0.1591
     27 C         143.9084  137.9255  161.2017 C.3     1  UNL1        0.1729
     28 O         143.4147  137.7332  159.7984 O.3     1  UNL1       -0.3511
     29 C         142.8956  138.9049  159.0188 C.3     1  UNL1        0.1437
     30 C         142.8702  140.2688  159.6425 C.3     1  UNL1        0.0503
     31 C         143.3640  140.4611  161.0458 C.3     1  UNL1        0.0865
     32 C         143.4214  139.3786  164.3806 C.3     1  UNL1        0.1742
     33 O         144.3767  139.4817  163.2287 O.3     1  UNL1       -0.3496
@<TRIPOS>UNITY_ATOM_ATTR
21 1
charge 1
23 1
charge -1
@<TRIPOS>BOND
     1    32    33    1
     2    33    26    1
     3    26    27    1
     4    27    28    1
     5    28    29    1
     6    29    30    1
     7    30    31    1
     8    31    24    1
     9     1    24    1
    10     1     2    1
    11     3     2    1
    12     3     4    1
    13     4     5    1
    14     5     6    1
    15     6     7    1
    16     7     9    1
    17     9    10    2
    18     9    11   am
    19    11    12    1
    20    12    13    1
    21    13    14    1
    22    14    15   ar
    23    15    16   ar
    24    16    17   ar
    25    17    21    1
    26    21    22    2
    27    21    23    1
    28    17    18   ar
    29    18    19   ar
    30    19    20    1
    31     7     8    1
    32    31    26    1
    33     8     1    1
    34     7     3    1
    35    20    11    1
    36    19    14   ar
    37    24    25    1
@<TRIPOS>MOLECULE
*****
 33 37 0 0 0
SMALL
GASTEIGER

@<TRIPOS>ATOM
      1 C         139.3784  140.1793  162.3262 C.3     1  UNL1        0.0545
      2 C         138.0053  140.7693  162.4549 C.3     1  UNL1        0.0162
      3 C         138.1511  142.1823  162.9364 C.3     1  UNL1        0.0095
      4 C         137.3927  143.4203  163.3135 C.3     1  UNL1        0.0005
      5 C         138.3872  144.4688  163.7156 C.3     1  UNL1        0.0005
      6 C         139.7603  143.8789  163.5869 C.3     1  UNL1        0.0087
      7 C         139.6144  142.4658  163.1054 C.3     1  UNL1        0.0704
      8 C         140.3729  141.2279  162.7282 C.3     1  UNL1        0.0243
      9 C         141.0777  142.7492  163.2743 C.2     1  UNL1        0.2250
     10 O         141.9076  143.1410  162.0878 O.2     1  UNL1       -0.2749
     11 N         141.7110  142.6408  164.6297 N.am    1  UNL1       -0.2750
     12 C         143.1743  142.9242  164.7987 C.3     1  UNL1        0.1000
     13 C         143.8076  142.8157  166.1541 C.3     1  UNL1        0.0670
     14 C         142.9776  142.4239  167.3405 C.ar    1  UNL1        0.0588
     15 N         143.6110  142.3155  168.6960 N.ar    1  UNL1       -0.2421
     16 C         142.7811  141.9237  169.8824 C.ar    1  UNL1        0.1736
     17 C         141.3178  141.6403  169.7134 C.ar    1  UNL1        0.3087
     18 C         140.6845  141.7487  168.3580 C.ar    1  UNL1        0.0755
     19 C         141.5144  142.1405  167.1716 C.ar    1  UNL1        0.0174
     20 C         140.8811  142.2489  165.8162 C.3     1  UNL1        0.1215
     21 N         140.4878  141.2484  170.8999 N.pl3   1  UNL1        0.0825
     22 O         139.7454  139.9451  170.8983 O.2     1  UNL1        0.0415
     23 O         140.4004  142.1600  172.0880 O.co2   1  UNL1       -0.5760
     24 N         139.7005  138.7856  161.8747 N.3     1  UNL1       -0.2975
     25 H         139.7579  138.2099  162.7148 H       1  UNL1        0.1232
     26 C         142.1919  138.0553  161.7783 C.3     1  UNL1        0.1591
     27 C         143.4389  137.7926  160.9872 C.3     1  UNL1        0.1729
     28 O         143.4415  137.9975  159.5013 O.3     1  UNL1       -0.3511
     29 C         142.1971  138.4650  158.8064 C.3     1  UNL1        0.1437
     30 C         140.9500  138.7277  159.5976 C.3     1  UNL1        0.0503
     31 C         140.9475  138.5229  161.0836 C.3     1  UNL1        0.0865
     32 C         142.7720  138.8975  164.1667 C.3     1  UNL1        0.1742
     33 O         142.1893  137.8505  163.2642 O.3     1  UNL1       -0.3496
@<TRIPOS>UNITY_ATOM_ATTR
21 1
charge 1
23 1
charge -1
@<TRIPOS>BOND
     1    32    33    1
     2    33    26    1
     3    26    27    1
     4    27    28    1
     5    28    29    1
     6    29    30    1
     7    30    31    1
     8    31    24    1
     9     1    24    1
    10     1     2    1
    11     3     2    1
    12     3     4    1
    13     4     5    1
    14     5     6    1
    15     6     7    1
    16     7     9    1
    17     9    10    2
    18     9    11   am
    19    11    12    1
    20    12    13    1
    21    13    14    1
    22    14    15   ar
    23    15    16   ar
    24    16    17   ar
    25    17    21    1
    26    21    22    2
    27    21    23    1
    28    17    18   ar
    29    18    19   ar
    30    19    20    1
    31     7     8    1
    32    31    26    1
    33     8     1    1
    34     7     3    1
    35    20    11    1
    36    19    14   ar
    37    24    25    1
