@<TRIPOS>MOLECULE
*****
 20 22 0 0 0
SMALL
GASTEIGER

@<TRIPOS>ATOM
      1 C         139.5015  139.2152  164.8236 C.3     1  UNL1        0.0681
      2 C         140.8071  138.6714  165.3232 C.3     1  UNL1        0.0100
      3 C         141.5266  137.6122  164.5419 C.3     1  UNL1        0.0176
      4 C         140.9405  137.0969  163.2609 C.3     1  UNL1        0.0686
      5 N         139.6349  137.6407  162.7612 N.3     1  UNL1       -0.2971
      6 C         138.9154  138.6999  163.5426 C.3     1  UNL1        0.0757
      7 H         138.9971  136.8488  162.6821 H       1  UNL1        0.1233
      8 C         139.6523  140.0160  166.0830 C.ar    1  UNL1        0.1234
      9 C         139.2049  139.5982  167.4524 C.ar    1  UNL1        0.0360
     10 C         139.5531  140.6991  168.4098 C.ar    1  UNL1        0.0372
     11 C         139.3524  140.8435  169.8893 C.ar    1  UNL1        0.0031
     12 C         139.8144  142.0861  170.5910 C.ar    1  UNL1        0.0002
     13 C         140.4771  143.1843  169.8134 C.ar    1  UNL1        0.0031
     14 C         140.6778  143.0399  168.3339 C.ar    1  UNL1        0.0375
     15 C         140.2158  141.7974  167.6321 C.ar    1  UNL1        0.1448
     16 O         140.2771  141.3751  166.1941 O.2     1  UNL1       -0.4577
     17 C         138.2483  140.0371  164.7613 C.3     1  UNL1        0.0402
     18 O         136.5892  141.3102  163.2196 O.3     1  UNL1       -0.3820
     19 C         137.9938  140.9286  163.5821 C.3     1  UNL1        0.1376
     20 H         136.6017  141.8857  162.4389 H       1  UNL1        0.2104
@<TRIPOS>BOND
     1    18    19    1
     2    19    17    1
     3     1    17    1
     4     1     8    1
     5     8     9   ar
     6     9    10   ar
     7    10    11   ar
     8    11    12   ar
     9    12    13   ar
    10    13    14   ar
    11    14    15   ar
    12    15    16   ar
    13     1     2    1
    14     2     3    1
    15     3     4    1
    16     4     5    1
    17     5     6    1
    18     6     1    1
    19    16     8   ar
    20    15    10   ar
    21    18    20    1
    22     5     7    1
@<TRIPOS>MOLECULE
*****
 20 22 0 0 0
SMALL
GASTEIGER

@<TRIPOS>ATOM
      1 C         138.9738  138.7407  164.1014 C.3     1  UNL1        0.0681
      2 C         138.3554  140.0557  163.7293 C.3     1  UNL1        0.0100
      3 C         137.7000  140.2242  162.3906 C.3     1  UNL1        0.0176
      4 C         137.6630  139.0778  161.4240 C.3     1  UNL1        0.0686
      5 N         138.2814  137.7628  161.7961 N.3     1  UNL1       -0.2971
      6 C         138.9368  137.5943  163.1348 C.3     1  UNL1        0.0757
      7 H         138.9925  137.5623  161.0928 H       1  UNL1        0.1233
      8 C         139.2601  139.5251  165.3475 C.ar    1  UNL1        0.1234
      9 C         138.9009  139.1199  166.7464 C.ar    1  UNL1        0.0360
     10 C         139.3746  140.1968  167.6770 C.ar    1  UNL1        0.0372
     11 C         139.2965  140.3407  169.1680 C.ar    1  UNL1        0.0031
     12 C         139.8705  141.5553  169.8353 C.ar    1  UNL1        0.0002
     13 C         140.5225  142.6260  169.0115 C.ar    1  UNL1        0.0031
     14 C         140.6006  142.4820  167.5205 C.ar    1  UNL1        0.0375
     15 C         140.0266  141.2674  166.8532 C.ar    1  UNL1        0.1448
     16 O         139.9559  140.8523  165.4136 O.2     1  UNL1       -0.4577
     17 C         139.6917  137.6982  164.9062 C.3     1  UNL1        0.0402
     18 O         142.2762  137.8301  165.1363 O.3     1  UNL1       -0.3820
     19 C         141.0580  137.2391  164.4908 C.3     1  UNL1        0.1376
     20 H         143.0718  137.4263  164.7558 H       1  UNL1        0.2104
@<TRIPOS>BOND
     1    18    19    1
     2    19    17    1
     3     1    17    1
     4     1     8    1
     5     8     9   ar
     6     9    10   ar
     7    10    11   ar
     8    11    12   ar
     9    12    13   ar
    10    13    14   ar
    11    14    15   ar
    12    15    16   ar
    13     1     2    1
    14     2     3    1
    15     3     4    1
    16     4     5    1
    17     5     6    1
    18     6     1    1
    19    16     8   ar
    20    15    10   ar
    21    18    20    1
    22     5     7    1
@<TRIPOS>MOLECULE
*****
 20 22 0 0 0
SMALL
GASTEIGER

@<TRIPOS>ATOM
      1 C         141.6243  141.0027  168.7395 C.3     1  UNL1        0.0681
      2 C         140.6265  141.9279  168.1084 C.3     1  UNL1        0.0100
      3 C         140.3256  143.2529  168.7441 C.3     1  UNL1        0.0176
      4 C         141.0225  143.6526  170.0107 C.3     1  UNL1        0.0686
      5 N         142.0204  142.7274  170.6418 N.3     1  UNL1       -0.2971
      6 C         142.3212  141.4024  170.0062 C.3     1  UNL1        0.0757
      7 H         141.6853  142.5321  171.5852 H       1  UNL1        0.1233
      8 C         141.2258  140.1828  167.5484 C.ar    1  UNL1        0.1234
      9 C         139.8238  139.9435  167.0718 C.ar    1  UNL1        0.0360
     10 C         139.8908  139.0710  165.8535 C.ar    1  UNL1        0.0372
     11 C         138.8240  138.5110  164.9601 C.ar    1  UNL1        0.0031
     12 C         139.2007  137.6509  163.7904 C.ar    1  UNL1        0.0002
     13 C         140.6441  137.3508  163.5140 C.ar    1  UNL1        0.0031
     14 C         141.7110  137.9109  164.4074 C.ar    1  UNL1        0.0375
     15 C         141.3343  138.7710  165.5771 C.ar    1  UNL1        0.1448
     16 O         142.1593  139.4581  166.6246 O.2     1  UNL1       -0.4577
     17 C         142.4837  139.7927  168.9569 C.3     1  UNL1        0.0402
     18 O         143.1856  137.7653  170.4221 O.3     1  UNL1       -0.3820
     19 C         142.3322  138.9802  170.2087 C.3     1  UNL1        0.1376
     20 H         142.9625  137.3591  171.2743 H       1  UNL1        0.2104
@<TRIPOS>BOND
     1    18    19    1
     2    19    17    1
     3     1    17    1
     4     1     8    1
     5     8     9   ar
     6     9    10   ar
     7    10    11   ar
     8    11    12   ar
     9    12    13   ar
    10    13    14   ar
    11    14    15   ar
    12    15    16   ar
    13     1     2    1
    14     2     3    1
    15     3     4    1
    16     4     5    1
    17     5     6    1
    18     6     1    1
    19    16     8   ar
    20    15    10   ar
    21    18    20    1
    22     5     7    1
@<TRIPOS>MOLECULE
*****
 20 22 0 0 0
SMALL
GASTEIGER

@<TRIPOS>ATOM
      1 C         143.2886  143.3896  164.5223 C.3     1  UNL1        0.0681
      2 C         141.8154  143.5764  164.7340 C.3     1  UNL1        0.0100
      3 C         141.0140  144.3853  163.7575 C.3     1  UNL1        0.0176
      4 C         141.6858  145.0074  162.5694 C.3     1  UNL1        0.0686
      5 N         143.1590  144.8206  162.3577 N.3     1  UNL1       -0.2971
      6 C         143.9604  144.0117  163.3342 C.3     1  UNL1        0.0757
      7 H         143.5739  145.7522  162.3366 H       1  UNL1        0.1233
      8 C         143.1065  142.6084  165.7898 C.ar    1  UNL1        0.1234
      9 C         142.3493  141.3213  165.9311 C.ar    1  UNL1        0.0360
     10 C         142.4244  140.8945  167.3672 C.ar    1  UNL1        0.0372
     11 C         141.8648  139.7063  168.0917 C.ar    1  UNL1        0.0031
     12 C         142.1089  139.5415  169.5625 C.ar    1  UNL1        0.0002
     13 C         142.9125  140.5649  170.3087 C.ar    1  UNL1        0.0031
     14 C         143.4720  141.7531  169.5842 C.ar    1  UNL1        0.0375
     15 C         143.2280  141.9179  168.1134 C.ar    1  UNL1        0.1448
     16 O         143.6495  142.9771  167.1385 O.2     1  UNL1       -0.4577
     17 C         144.6985  142.9315  164.7508 C.3     1  UNL1        0.0402
     18 O         146.4945  141.8145  163.2419 O.3     1  UNL1       -0.3820
     19 C         145.2212  141.7245  164.0296 C.3     1  UNL1        0.1376
     20 H         146.6887  140.9526  162.8416 H       1  UNL1        0.2104
@<TRIPOS>BOND
     1    18    19    1
     2    19    17    1
     3     1    17    1
     4     1     8    1
     5     8     9   ar
     6     9    10   ar
     7    10    11   ar
     8    11    12   ar
     9    12    13   ar
    10    13    14   ar
    11    14    15   ar
    12    15    16   ar
    13     1     2    1
    14     2     3    1
    15     3     4    1
    16     4     5    1
    17     5     6    1
    18     6     1    1
    19    16     8   ar
    20    15    10   ar
    21    18    20    1
    22     5     7    1
@<TRIPOS>MOLECULE
*****
 20 22 0 0 0
SMALL
GASTEIGER

@<TRIPOS>ATOM
      1 C         140.9746  141.1876  168.9200 C.3     1  UNL1        0.0681
      2 C         142.3410  141.3846  168.3335 C.3     1  UNL1        0.0100
      3 C         143.3334  142.2715  169.0253 C.3     1  UNL1        0.0176
      4 C         142.9594  142.9613  170.3037 C.3     1  UNL1        0.0686
      5 N         141.5930  142.7643  170.8902 N.3     1  UNL1       -0.2971
      6 C         140.6006  141.8774  170.1983 C.3     1  UNL1        0.0757
      7 H         141.1656  143.6879  170.9577 H       1  UNL1        0.1233
      8 C         140.8603  140.3254  167.6979 C.ar    1  UNL1        0.1234
      9 C         141.9874  139.6068  167.0173 C.ar    1  UNL1        0.0360
     10 C         141.4225  138.8676  165.8406 C.ar    1  UNL1        0.0372
     11 C         142.0616  137.9900  164.8056 C.ar    1  UNL1        0.0031
     12 C         141.2245  137.3742  163.7240 C.ar    1  UNL1        0.0002
     13 C         139.7482  137.6359  163.6774 C.ar    1  UNL1        0.0031
     14 C         139.1091  138.5135  164.7124 C.ar    1  UNL1        0.0375
     15 C         139.9462  139.1294  165.7940 C.ar    1  UNL1        0.1448
     16 O         139.5988  140.0303  166.9419 O.2     1  UNL1       -0.4577
     17 C         139.5684  140.6911  169.0821 C.3     1  UNL1        0.0402
     18 O         137.6978  139.6820  170.5761 O.3     1  UNL1       -0.3820
     19 C         139.1179  140.1313  170.3988 C.3     1  UNL1        0.1376
     20 H         137.5743  139.3491  171.4788 H       1  UNL1        0.2104
@<TRIPOS>BOND
     1    18    19    1
     2    19    17    1
     3     1    17    1
     4     1     8    1
     5     8     9   ar
     6     9    10   ar
     7    10    11   ar
     8    11    12   ar
     9    12    13   ar
    10    13    14   ar
    11    14    15   ar
    12    15    16   ar
    13     1     2    1
    14     2     3    1
    15     3     4    1
    16     4     5    1
    17     5     6    1
    18     6     1    1
    19    16     8   ar
    20    15    10   ar
    21    18    20    1
    22     5     7    1
@<TRIPOS>MOLECULE
*****
 20 22 0 0 0
SMALL
GASTEIGER

@<TRIPOS>ATOM
      1 C         138.2370  140.5543  163.6462 C.3     1  UNL1        0.0681
      2 C         138.7611  139.1811  163.9460 C.3     1  UNL1        0.0100
      3 C         138.5633  138.0705  162.9573 C.3     1  UNL1        0.0176
      4 C         137.8415  138.3330  161.6689 C.3     1  UNL1        0.0686
      5 N         137.3174  139.7061  161.3691 N.3     1  UNL1       -0.2971
      6 C         137.5152  140.8168  162.3578 C.3     1  UNL1        0.0757
      7 H         136.3115  139.6131  161.2281 H       1  UNL1        0.1233
      8 C         138.8508  140.7980  164.9930 C.ar    1  UNL1        0.1234
      9 C         138.8393  139.8465  166.1524 C.ar    1  UNL1        0.0360
     10 C         139.5654  140.4965  167.2928 C.ar    1  UNL1        0.0372
     11 C         139.8668  140.0309  168.6865 C.ar    1  UNL1        0.0031
     12 C         140.6285  140.9187  169.6254 C.ar    1  UNL1        0.0002
     13 C         141.0888  142.2720  169.1707 C.ar    1  UNL1        0.0031
     14 C         140.7873  142.7375  167.7770 C.ar    1  UNL1        0.0375
     15 C         140.0256  141.8498  166.8381 C.ar    1  UNL1        0.1448
     16 O         139.5840  142.0361  165.4167 O.2     1  UNL1       -0.4577
     17 C         137.9261  142.0120  163.8142 C.3     1  UNL1        0.0402
     18 O         137.3991  144.3332  162.7727 O.3     1  UNL1       -0.3820
     19 C         137.7762  142.8908  162.6077 C.3     1  UNL1        0.1376
     20 H         137.3450  144.7550  161.9009 H       1  UNL1        0.2104
@<TRIPOS>BOND
     1    18    19    1
     2    19    17    1
     3     1    17    1
     4     1     8    1
     5     8     9   ar
     6     9    10   ar
     7    10    11   ar
     8    11    12   ar
     9    12    13   ar
    10    13    14   ar
    11    14    15   ar
    12    15    16   ar
    13     1     2    1
    14     2     3    1
    15     3     4    1
    16     4     5    1
    17     5     6    1
    18     6     1    1
    19    16     8   ar
    20    15    10   ar
    21    18    20    1
    22     5     7    1
@<TRIPOS>MOLECULE
*****
 20 22 0 0 0
SMALL
GASTEIGER

@<TRIPOS>ATOM
      1 C         140.2899  139.9763  167.3683 C.3     1  UNL1        0.0681
      2 C         139.9097  139.4268  166.0254 C.3     1  UNL1        0.0100
      3 C         138.5974  138.7222  165.8476 C.3     1  UNL1        0.0176
      4 C         137.6654  138.5672  167.0127 C.3     1  UNL1        0.0686
      5 N         138.0457  139.1167  168.3556 N.3     1  UNL1       -0.2971
      6 C         139.3580  139.8213  168.5334 C.3     1  UNL1        0.0757
      7 H         138.0424  138.3316  169.0067 H       1  UNL1        0.1233
      8 C         141.4999  140.3696  166.5738 C.ar    1  UNL1        0.1234
      9 C         142.4334  139.4322  165.8669 C.ar    1  UNL1        0.0360
     10 C         143.4993  140.2526  165.2028 C.ar    1  UNL1        0.0372
     11 C         144.6845  139.8709  164.3665 C.ar    1  UNL1        0.0031
     12 C         145.5949  140.9338  163.8267 C.ar    1  UNL1        0.0002
     13 C         145.3201  142.3783  164.1232 C.ar    1  UNL1        0.0031
     14 C         144.1349  142.7599  164.9595 C.ar    1  UNL1        0.0375
     15 C         143.2244  141.6971  165.4993 C.ar    1  UNL1        0.1448
     16 O         141.9888  141.7694  166.3466 O.2     1  UNL1       -0.4577
     17 C         141.0904  140.6624  168.4353 C.3     1  UNL1        0.0402
     18 O         142.9432  139.2488  169.5838 O.3     1  UNL1       -0.3820
     19 C         141.5851  139.8847  169.6187 C.3     1  UNL1        0.1376
     20 H         143.1061  138.7880  170.4216 H       1  UNL1        0.2104
@<TRIPOS>BOND
     1    18    19    1
     2    19    17    1
     3     1    17    1
     4     1     8    1
     5     8     9   ar
     6     9    10   ar
     7    10    11   ar
     8    11    12   ar
     9    12    13   ar
    10    13    14   ar
    11    14    15   ar
    12    15    16   ar
    13     1     2    1
    14     2     3    1
    15     3     4    1
    16     4     5    1
    17     5     6    1
    18     6     1    1
    19    16     8   ar
    20    15    10   ar
    21    18    20    1
    22     5     7    1
@<TRIPOS>MOLECULE
*****
 20 22 0 0 0
SMALL
GASTEIGER

@<TRIPOS>ATOM
      1 C         141.5121  141.5591  168.5944 C.3     1  UNL1        0.0681
      2 C         140.7067  140.5088  167.8888 C.3     1  UNL1        0.0100
      3 C         139.4588  139.9690  168.5224 C.3     1  UNL1        0.0176
      4 C         139.0164  140.4795  169.8616 C.3     1  UNL1        0.0686
      5 N         139.8218  141.5299  170.5673 N.3     1  UNL1       -0.2971
      6 C         141.0697  142.0697  169.9336 C.3     1  UNL1        0.0757
      7 H         140.0954  141.1358  171.4674 H       1  UNL1        0.1233
      8 C         142.3333  141.3933  167.3502 C.ar    1  UNL1        0.1234
      9 C         143.0573  142.4852  166.6196 C.ar    1  UNL1        0.0360
     10 C         143.7462  141.8733  165.4360 C.ar    1  UNL1        0.0372
     11 C         144.6065  142.4647  164.3589 C.ar    1  UNL1        0.0031
     12 C         145.1685  141.5861  163.2809 C.ar    1  UNL1        0.0002
     13 C         144.8702  140.1161  163.2799 C.ar    1  UNL1        0.0031
     14 C         144.0099  139.5246  164.3569 C.ar    1  UNL1        0.0375
     15 C         143.4479  140.4032  165.4350 C.ar    1  UNL1        0.1448
     16 O         142.5747  140.1066  166.6180 O.2     1  UNL1       -0.4577
     17 C         142.6028  142.5519  168.8679 C.3     1  UNL1        0.0402
     18 O         144.8035  142.8565  170.2148 O.3     1  UNL1       -0.3820
     19 C         143.3444  142.5113  170.1712 C.3     1  UNL1        0.1376
     20 H         145.1265  142.7808  171.1263 H       1  UNL1        0.2104
@<TRIPOS>BOND
     1    18    19    1
     2    19    17    1
     3     1    17    1
     4     1     8    1
     5     8     9   ar
     6     9    10   ar
     7    10    11   ar
     8    11    12   ar
     9    12    13   ar
    10    13    14   ar
    11    14    15   ar
    12    15    16   ar
    13     1     2    1
    14     2     3    1
    15     3     4    1
    16     4     5    1
    17     5     6    1
    18     6     1    1
    19    16     8   ar
    20    15    10   ar
    21    18    20    1
    22     5     7    1
@<TRIPOS>MOLECULE
*****
 20 22 0 0 0
SMALL
GASTEIGER

@<TRIPOS>ATOM
      1 C         139.8633  140.8950  167.3344 C.3     1  UNL1        0.0681
      2 C         139.3189  140.5408  165.9824 C.3     1  UNL1        0.0100
      3 C         138.2533  139.4928  165.8540 C.3     1  UNL1        0.0176
      4 C         137.7322  138.7992  167.0776 C.3     1  UNL1        0.0686
      5 N         138.2766  139.1535  168.4296 N.3     1  UNL1       -0.2971
      6 C         139.3422  140.2014  168.5580 C.3     1  UNL1        0.0757
      7 H         138.6582  138.2953  168.8276 H       1  UNL1        0.1233
      8 C         140.6709  141.8237  166.4769 C.ar    1  UNL1        0.1234
      9 C         140.1256  142.9076  165.5949 C.ar    1  UNL1        0.0360
     10 C         141.2833  143.5853  164.9237 C.ar    1  UNL1        0.0372
     11 C         141.3523  144.7221  163.9475 C.ar    1  UNL1        0.0031
     12 C         142.6820  145.1938  163.4385 C.ar    1  UNL1        0.0002
     13 C         143.9428  144.5288  163.9056 C.ar    1  UNL1        0.0031
     14 C         143.8738  143.3920  164.8818 C.ar    1  UNL1        0.0375
     15 C         142.5441  142.9203  165.3908 C.ar    1  UNL1        0.1448
     16 O         142.1656  141.8316  166.3507 O.2     1  UNL1       -0.4577
     17 C         140.6882  141.5719  168.3886 C.3     1  UNL1        0.0402
     18 O         140.8526  142.8002  170.6721 O.3     1  UNL1       -0.3820
     19 C         140.0241  142.1578  169.5993 C.3     1  UNL1        0.1376
     20 H         140.2720  143.1251  171.3780 H       1  UNL1        0.2104
@<TRIPOS>BOND
     1    18    19    1
     2    19    17    1
     3     1    17    1
     4     1     8    1
     5     8     9   ar
     6     9    10   ar
     7    10    11   ar
     8    11    12   ar
     9    12    13   ar
    10    13    14   ar
    11    14    15   ar
    12    15    16   ar
    13     1     2    1
    14     2     3    1
    15     3     4    1
    16     4     5    1
    17     5     6    1
    18     6     1    1
    19    16     8   ar
    20    15    10   ar
    21    18    20    1
    22     5     7    1
