@<TRIPOS>MOLECULE
*****
 30 34 0 0 0
SMALL
GASTEIGER

@<TRIPOS>ATOM
      1 C         137.4018  142.4834  156.4257 C.3     1  UNL1        0.0181
      2 C         137.8708  142.3376  157.8431 C.3     1  UNL1        0.0036
      3 C         138.5485  142.4113  159.1792 C.3     1  UNL1        0.0227
      4 C         139.6450  143.4306  159.0873 C.3     1  UNL1        0.0870
      5 C         139.6450  143.9870  157.6943 C.3     1  UNL1        0.0227
      6 C         138.5485  143.3115  156.9253 C.3     1  UNL1        0.0036
      7 N         140.5778  143.8245  160.1940 N.ar    1  UNL1       -0.3109
      8 C         142.0595  144.0224  160.0697 C.ar    1  UNL1        0.1785
      9 N         142.5900  144.4098  161.4182 N.ar    1  UNL1       -0.2239
     10 C         141.4362  144.4515  162.3758 C.ar    1  UNL1        0.0989
     11 C         141.3573  144.7721  163.8390 C.ar    1  UNL1        0.0229
     12 C         140.0348  144.7310  164.5456 C.ar    1  UNL1        0.0313
     13 C         138.7912  144.3692  163.7889 C.ar    1  UNL1        0.1417
     14 F         137.4686  144.3281  164.4956 F       1  UNL1       -0.2041
     15 C         138.8701  144.0486  162.3258 C.ar    1  UNL1        0.0484
     16 C         140.1926  144.0898  161.6192 C.ar    1  UNL1        0.0811
     17 C         136.4691  142.0896  155.3190 C.3     1  UNL1        0.0718
     18 N         135.0261  141.8101  155.6182 N.am    1  UNL1       -0.3025
     19 C         134.5342  140.3946  155.6839 C.2     1  UNL1        0.2458
     20 O         135.4854  139.2585  155.4505 O.2     1  UNL1       -0.2701
     21 H         134.4018  142.5558  155.7714 H       1  UNL1        0.1497
     22 C         133.0911  140.1151  155.9830 C.ar    1  UNL1        0.0534
     23 C         132.6946  138.8144  156.6159 C.ar    1  UNL1        0.0054
     24 C         131.2515  138.5349  156.9151 C.ar    1  UNL1        0.0115
     25 C         130.2050  139.5563  156.5812 C.ar    1  UNL1        0.0577
     26 CL        128.7619  139.2769  156.8804 Cl      1  UNL1       -0.0822
     27 C         130.6015  140.8572  155.9483 C.ar    1  UNL1        0.0115
     28 C         132.0445  141.1366  155.6492 C.ar    1  UNL1        0.0054
     29 C         138.0800  141.0083  153.5910 C.3     1  UNL1        0.0017
     30 C         136.9794  141.9751  153.9131 C.3     1  UNL1        0.0196
@<TRIPOS>BOND
     1    29    30    1
     2    17    30    1
     3    17    18    1
     4    18    19   am
     5    19    20    2
     6    19    22    1
     7    22    23   ar
     8    23    24   ar
     9    24    25   ar
    10    25    26    1
    11    25    27   ar
    12    27    28   ar
    13     1    17    1
    14     1     2    1
    15     2     3    1
    16     3     4    1
    17     4     7    1
    18     7     8   ar
    19     8     9   ar
    20     9    10   ar
    21    10    11   ar
    22    11    12   ar
    23    12    13   ar
    24    13    14    1
    25    13    15   ar
    26    15    16   ar
    27     4     5    1
    28     6     5    1
    29    28    22   ar
    30     6     1    1
    31     6     2    1
    32    16     7   ar
    33    16    10   ar
    34    18    21    1
@<TRIPOS>MOLECULE
*****
 30 34 0 0 0
SMALL
GASTEIGER

@<TRIPOS>ATOM
      1 C         139.5632  143.7455  161.8478 C.3     1  UNL1        0.0181
      2 C         140.1287  144.7390  160.8766 C.3     1  UNL1        0.0036
      3 C         140.6083  145.5212  159.6899 C.3     1  UNL1        0.0227
      4 C         140.3162  144.7188  158.4568 C.3     1  UNL1        0.0870
      5 C         139.6560  143.4405  158.8812 C.3     1  UNL1        0.0227
      6 C         139.5401  143.4530  160.3767 C.3     1  UNL1        0.0036
      7 N         140.6293  145.1235  157.0468 N.ar    1  UNL1       -0.3109
      8 C         141.5069  144.3740  156.0886 C.ar    1  UNL1        0.1785
      9 N         141.5397  145.1361  154.7970 N.ar    1  UNL1       -0.2239
     10 C         140.6824  146.3565  154.9569 C.ar    1  UNL1        0.0989
     11 C         140.3414  147.4739  154.0161 C.ar    1  UNL1        0.0229
     12 C         139.4378  148.5835  154.4657 C.ar    1  UNL1        0.0313
     13 C         138.8751  148.5757  155.8562 C.ar    1  UNL1        0.1417
     14 F         137.9715  149.6854  156.3058 F       1  UNL1       -0.2041
     15 C         139.2161  147.4583  156.7970 C.ar    1  UNL1        0.0484
     16 C         140.1197  146.3488  156.3474 C.ar    1  UNL1        0.0811
     17 C         139.2501  143.3408  163.2577 C.3     1  UNL1        0.0718
     18 N         139.9419  142.1590  163.8700 N.am    1  UNL1       -0.3025
     19 C         141.3225  142.3090  164.4370 C.2     1  UNL1        0.2458
     20 O         142.0113  143.6407  164.3916 O.2     1  UNL1       -0.2701
     21 H         139.4898  141.2850  163.8998 H       1  UNL1        0.1497
     22 C         142.0143  141.1272  165.0493 C.ar    1  UNL1        0.0534
     23 C         142.7977  140.1854  164.1839 C.ar    1  UNL1        0.0054
     24 C         143.4895  139.0037  164.7962 C.ar    1  UNL1        0.0115
     25 C         143.3979  138.7638  166.2740 C.ar    1  UNL1        0.0577
     26 CL        144.0896  137.5821  166.8863 Cl      1  UNL1       -0.0822
     27 C         142.6144  139.7056  167.1396 C.ar    1  UNL1        0.0115
     28 C         141.9226  140.8874  166.5273 C.ar    1  UNL1        0.0054
     29 C         138.6695  144.8327  165.3040 C.3     1  UNL1        0.0017
     30 C         138.2452  144.1178  164.0555 C.3     1  UNL1        0.0196
@<TRIPOS>BOND
     1    29    30    1
     2    17    30    1
     3    17    18    1
     4    18    19   am
     5    19    20    2
     6    19    22    1
     7    22    23   ar
     8    23    24   ar
     9    24    25   ar
    10    25    26    1
    11    25    27   ar
    12    27    28   ar
    13     1    17    1
    14     1     2    1
    15     2     3    1
    16     3     4    1
    17     4     7    1
    18     7     8   ar
    19     8     9   ar
    20     9    10   ar
    21    10    11   ar
    22    11    12   ar
    23    12    13   ar
    24    13    14    1
    25    13    15   ar
    26    15    16   ar
    27     4     5    1
    28     6     5    1
    29    28    22   ar
    30     6     1    1
    31     6     2    1
    32    16     7   ar
    33    16    10   ar
    34    18    21    1
@<TRIPOS>MOLECULE
*****
 30 34 0 0 0
SMALL
GASTEIGER

@<TRIPOS>ATOM
      1 C         140.3050  145.0835  158.5070 C.3     1  UNL1        0.0181
      2 C         140.0271  144.1307  159.6318 C.3     1  UNL1        0.0036
      3 C         139.7955  143.4299  160.9377 C.3     1  UNL1        0.0227
      4 C         139.9587  144.4353  162.0387 C.3     1  UNL1        0.0870
      5 C         140.2912  145.7576  161.4135 C.3     1  UNL1        0.0227
      6 C         140.3335  145.5693  159.9259 C.3     1  UNL1        0.0036
      7 N         139.8147  144.1659  163.5073 N.ar    1  UNL1       -0.3109
      8 C         138.7023  144.6524  164.3881 C.ar    1  UNL1        0.1785
      9 N         138.9580  144.1497  165.7780 N.ar    1  UNL1       -0.2239
     10 C         140.2285  143.3526  165.7563 C.ar    1  UNL1        0.0989
     11 C         140.9716  142.6190  166.8331 C.ar    1  UNL1        0.0229
     12 C         142.2442  141.8953  166.5065 C.ar    1  UNL1        0.0313
     13 C         142.7737  141.9053  165.1031 C.ar    1  UNL1        0.1417
     14 F         144.0464  141.1816  164.7766 F       1  UNL1       -0.2041
     15 C         142.0306  142.6389  164.0263 C.ar    1  UNL1        0.0484
     16 C         140.7580  143.3626  164.3529 C.ar    1  UNL1        0.0811
     17 C         140.4490  145.3529  157.0385 C.3     1  UNL1        0.0718
     18 N         140.3964  146.7616  156.5258 N.am    1  UNL1       -0.3025
     19 C         139.2444  147.2074  155.6749 C.2     1  UNL1        0.2458
     20 O         138.1450  146.2447  155.3367 O.2     1  UNL1       -0.2701
     21 H         141.1180  147.3935  156.7478 H       1  UNL1        0.1497
     22 C         139.1918  148.6162  155.1621 C.ar    1  UNL1        0.0534
     23 C         138.5484  149.6910  155.9870 C.ar    1  UNL1        0.0054
     24 C         138.4958  151.0997  155.4742 C.ar    1  UNL1        0.0115
     25 C         139.0867  151.4334  154.1366 C.ar    1  UNL1        0.0577
     26 CL        139.0341  152.8421  153.6238 Cl      1  UNL1       -0.0822
     27 C         139.7302  150.3586  153.3116 C.ar    1  UNL1        0.0115
     28 C         139.7828  148.9499  153.8243 C.ar    1  UNL1        0.0054
     29 C         139.6582  143.0852  156.0476 C.3     1  UNL1        0.0017
     30 C         140.6456  144.2137  156.0826 C.3     1  UNL1        0.0196
@<TRIPOS>BOND
     1    29    30    1
     2    17    30    1
     3    17    18    1
     4    18    19   am
     5    19    20    2
     6    19    22    1
     7    22    23   ar
     8    23    24   ar
     9    24    25   ar
    10    25    26    1
    11    25    27   ar
    12    27    28   ar
    13     1    17    1
    14     1     2    1
    15     2     3    1
    16     3     4    1
    17     4     7    1
    18     7     8   ar
    19     8     9   ar
    20     9    10   ar
    21    10    11   ar
    22    11    12   ar
    23    12    13   ar
    24    13    14    1
    25    13    15   ar
    26    15    16   ar
    27     4     5    1
    28     6     5    1
    29    28    22   ar
    30     6     1    1
    31     6     2    1
    32    16     7   ar
    33    16    10   ar
    34    18    21    1
@<TRIPOS>MOLECULE
*****
 30 34 0 0 0
SMALL
GASTEIGER

@<TRIPOS>ATOM
      1 C         140.2876  138.2689  157.9205 C.3     1  UNL1        0.0181
      2 C         140.9475  138.6631  159.2087 C.3     1  UNL1        0.0036
      3 C         141.3275  139.1824  160.5636 C.3     1  UNL1        0.0227
      4 C         140.1277  139.8633  161.1524 C.3     1  UNL1        0.0870
      5 C         139.0060  139.7649  160.1614 C.3     1  UNL1        0.0227
      6 C         139.5127  139.0231  158.9602 C.3     1  UNL1        0.0036
      7 N         140.0612  140.5263  162.4963 N.ar    1  UNL1       -0.3109
      8 C         140.4480  141.9433  162.8005 C.ar    1  UNL1        0.1785
      9 N         140.2220  142.1814  164.2641 N.ar    1  UNL1       -0.2239
     10 C         139.6956  140.9116  164.8645 C.ar    1  UNL1        0.0989
     11 C         139.2939  140.5547  166.2649 C.ar    1  UNL1        0.0229
     12 C         138.7929  139.1748  166.5728 C.ar    1  UNL1        0.0313
     13 C         138.6935  138.1519  165.4802 C.ar    1  UNL1        0.1417
     14 F         138.1924  136.7719  165.7881 F       1  UNL1       -0.2041
     15 C         139.0951  138.5088  164.0798 C.ar    1  UNL1        0.0484
     16 C         139.5962  139.8887  163.7720 C.ar    1  UNL1        0.0811
     17 C         140.3541  137.6059  156.5767 C.3     1  UNL1        0.0718
     18 N         140.9660  136.2430  156.4422 N.am    1  UNL1       -0.3025
     19 C         142.4506  136.0714  156.5711 C.2     1  UNL1        0.2458
     20 O         143.3232  137.2627  156.8345 O.2     1  UNL1       -0.2701
     21 H         140.3933  135.4612  156.2693 H       1  UNL1        0.1497
     22 C         143.0625  134.7085  156.4366 C.ar    1  UNL1        0.0534
     23 C         142.9010  133.9364  155.1608 C.ar    1  UNL1        0.0054
     24 C         143.5129  132.5735  155.0263 C.ar    1  UNL1        0.0115
     25 C         144.2864  131.9827  156.1676 C.ar    1  UNL1        0.0577
     26 CL        144.8983  130.6198  156.0331 Cl      1  UNL1       -0.0822
     27 C         144.4480  132.7548  157.4435 C.ar    1  UNL1        0.0115
     28 C         143.8361  134.1177  157.5780 C.ar    1  UNL1        0.0054
     29 C         139.4730  137.5206  154.1341 C.3     1  UNL1        0.0017
     30 C         139.8086  138.3058  155.3672 C.3     1  UNL1        0.0196
@<TRIPOS>BOND
     1    29    30    1
     2    17    30    1
     3    17    18    1
     4    18    19   am
     5    19    20    2
     6    19    22    1
     7    22    23   ar
     8    23    24   ar
     9    24    25   ar
    10    25    26    1
    11    25    27   ar
    12    27    28   ar
    13     1    17    1
    14     1     2    1
    15     2     3    1
    16     3     4    1
    17     4     7    1
    18     7     8   ar
    19     8     9   ar
    20     9    10   ar
    21    10    11   ar
    22    11    12   ar
    23    12    13   ar
    24    13    14    1
    25    13    15   ar
    26    15    16   ar
    27     4     5    1
    28     6     5    1
    29    28    22   ar
    30     6     1    1
    31     6     2    1
    32    16     7   ar
    33    16    10   ar
    34    18    21    1
@<TRIPOS>MOLECULE
*****
 30 34 0 0 0
SMALL
GASTEIGER

@<TRIPOS>ATOM
      1 C         140.9984  139.3378  158.9776 C.3     1  UNL1        0.0181
      2 C         141.9397  138.3522  158.3510 C.3     1  UNL1        0.0036
      3 C         142.6276  137.2776  157.5622 C.3     1  UNL1        0.0227
      4 C         141.6131  136.6468  156.6552 C.3     1  UNL1        0.0870
      5 C         140.2981  137.3313  156.8834 C.3     1  UNL1        0.0227
      6 C         140.4999  138.3853  157.9314 C.3     1  UNL1        0.0036
      7 N         141.8687  135.5278  155.6895 N.ar    1  UNL1       -0.3109
      8 C         141.3253  135.4251  154.2952 C.ar    1  UNL1        0.1785
      9 N         141.8333  134.1489  153.6926 N.ar    1  UNL1       -0.2239
     10 C         142.6907  133.4628  154.7145 C.ar    1  UNL1        0.0989
     11 C         143.4543  132.1722  154.6806 C.ar    1  UNL1        0.0229
     12 C         144.2397  131.7338  155.8809 C.ar    1  UNL1        0.0313
     13 C         144.2616  132.5860  157.1151 C.ar    1  UNL1        0.1417
     14 F         145.0471  132.1476  158.3155 F       1  UNL1       -0.2041
     15 C         143.4980  133.8766  157.1490 C.ar    1  UNL1        0.0484
     16 C         142.7125  134.3150  155.9487 C.ar    1  UNL1        0.0811
     17 C         140.7428  140.4568  159.9432 C.3     1  UNL1        0.0718
     18 N         139.9511  140.2037  161.1919 N.am    1  UNL1       -0.3025
     19 C         140.5295  139.3593  162.2884 C.2     1  UNL1        0.2458
     20 O         141.8996  138.7679  162.1363 O.2     1  UNL1       -0.2701
     21 H         139.0519  140.5919  161.2917 H       1  UNL1        0.1497
     22 C         139.7378  139.1063  163.5372 C.ar    1  UNL1        0.0534
     23 C         139.6709  137.7240  164.1156 C.ar    1  UNL1        0.0054
     24 C         138.8792  137.4710  165.3643 C.ar    1  UNL1        0.0115
     25 C         138.1544  138.6003  166.0345 C.ar    1  UNL1        0.0577
     26 CL        137.3628  138.3473  167.2832 Cl      1  UNL1       -0.0822
     27 C         138.2213  139.9827  165.4561 C.ar    1  UNL1        0.0115
     28 C         139.0130  140.2357  164.2074 C.ar    1  UNL1        0.0054
     29 C         142.6722  141.9952  159.1305 C.3     1  UNL1        0.0017
     30 C         141.2789  141.8289  159.6602 C.3     1  UNL1        0.0196
@<TRIPOS>BOND
     1    29    30    1
     2    17    30    1
     3    17    18    1
     4    18    19   am
     5    19    20    2
     6    19    22    1
     7    22    23   ar
     8    23    24   ar
     9    24    25   ar
    10    25    26    1
    11    25    27   ar
    12    27    28   ar
    13     1    17    1
    14     1     2    1
    15     2     3    1
    16     3     4    1
    17     4     7    1
    18     7     8   ar
    19     8     9   ar
    20     9    10   ar
    21    10    11   ar
    22    11    12   ar
    23    12    13   ar
    24    13    14    1
    25    13    15   ar
    26    15    16   ar
    27     4     5    1
    28     6     5    1
    29    28    22   ar
    30     6     1    1
    31     6     2    1
    32    16     7   ar
    33    16    10   ar
    34    18    21    1
@<TRIPOS>MOLECULE
*****
 30 34 0 0 0
SMALL
GASTEIGER

@<TRIPOS>ATOM
      1 C         141.6358  138.3054  157.7167 C.3     1  UNL1        0.0181
      2 C         141.4486  138.8593  159.0981 C.3     1  UNL1        0.0036
      3 C         140.9833  139.5070  160.3686 C.3     1  UNL1        0.0227
      4 C         139.6148  140.0713  160.1271 C.3     1  UNL1        0.0870
      5 C         139.2341  139.7725  158.7073 C.3     1  UNL1        0.0227
      6 C         140.3674  139.0234  158.0714 C.3     1  UNL1        0.0036
      7 N         138.7744  140.8057  161.1294 N.ar    1  UNL1       -0.3109
      8 C         137.6358  140.2285  161.9171 C.ar    1  UNL1        0.1785
      9 N         137.0828  141.3122  162.7944 N.ar    1  UNL1       -0.2239
     10 C         137.8795  142.5592  162.5489 C.ar    1  UNL1        0.0989
     11 C         137.7882  143.9392  163.1294 C.ar    1  UNL1        0.0229
     12 C         138.7423  145.0062  162.6809 C.ar    1  UNL1        0.0313
     13 C         139.7878  144.6931  161.6519 C.ar    1  UNL1        0.1417
     14 F         140.7419  145.7602  161.2034 F       1  UNL1       -0.2041
     15 C         139.8791  143.3131  161.0714 C.ar    1  UNL1        0.0484
     16 C         138.9250  142.2461  161.5199 C.ar    1  UNL1        0.0811
     17 C         142.4761  137.5711  156.7145 C.3     1  UNL1        0.0718
     18 N         143.0243  136.2147  157.0454 N.am    1  UNL1       -0.3025
     19 C         142.4533  134.9939  156.3869 C.2     1  UNL1        0.2458
     20 O         141.3342  135.1296  155.3974 O.2     1  UNL1       -0.2701
     21 H         143.7588  136.1256  157.6949 H       1  UNL1        0.1497
     22 C         143.0015  133.6374  156.7178 C.ar    1  UNL1        0.0534
     23 C         144.2296  133.5122  157.5698 C.ar    1  UNL1        0.0054
     24 C         144.7778  132.1558  157.9007 C.ar    1  UNL1        0.0115
     25 C         144.0978  130.9245  157.3797 C.ar    1  UNL1        0.0577
     26 CL        144.6460  129.5680  157.7106 Cl      1  UNL1       -0.0822
     27 C         142.8696  131.0496  156.5277 C.ar    1  UNL1        0.0115
     28 C         142.3214  132.4061  156.1967 C.ar    1  UNL1        0.0054
     29 C         144.1830  138.5087  154.9947 C.3     1  UNL1        0.0017
     30 C         142.7684  138.1933  155.3812 C.3     1  UNL1        0.0196
@<TRIPOS>BOND
     1    29    30    1
     2    17    30    1
     3    17    18    1
     4    18    19   am
     5    19    20    2
     6    19    22    1
     7    22    23   ar
     8    23    24   ar
     9    24    25   ar
    10    25    26    1
    11    25    27   ar
    12    27    28   ar
    13     1    17    1
    14     1     2    1
    15     2     3    1
    16     3     4    1
    17     4     7    1
    18     7     8   ar
    19     8     9   ar
    20     9    10   ar
    21    10    11   ar
    22    11    12   ar
    23    12    13   ar
    24    13    14    1
    25    13    15   ar
    26    15    16   ar
    27     4     5    1
    28     6     5    1
    29    28    22   ar
    30     6     1    1
    31     6     2    1
    32    16     7   ar
    33    16    10   ar
    34    18    21    1
@<TRIPOS>MOLECULE
*****
 30 34 0 0 0
SMALL
GASTEIGER

@<TRIPOS>ATOM
      1 C         140.4543  138.7055  163.8820 C.3     1  UNL1        0.0181
      2 C         140.4179  139.1702  162.4562 C.3     1  UNL1        0.0036
      3 C         140.6403  139.4599  161.0013 C.3     1  UNL1        0.0227
      4 C         141.8695  138.7199  160.5639 C.3     1  UNL1        0.0870
      5 C         142.4070  137.9729  161.7484 C.3     1  UNL1        0.0227
      6 C         141.5099  138.2512  162.9179 C.3     1  UNL1        0.0036
      7 N         142.4580  138.7259  159.1841 N.ar    1  UNL1       -0.3109
      8 C         142.6857  137.5230  158.3175 C.ar    1  UNL1        0.1785
      9 N         143.2906  137.9895  157.0266 N.ar    1  UNL1       -0.2239
     10 C         143.4367  139.4808  157.0954 C.ar    1  UNL1        0.0989
     11 C         143.9717  140.4831  156.1161 C.ar    1  UNL1        0.0229
     12 C         143.9923  141.9405  156.4702 C.ar    1  UNL1        0.0313
     13 C         143.4777  142.3956  157.8037 C.ar    1  UNL1        0.1417
     14 F         143.4983  143.8531  158.1578 F       1  UNL1       -0.2041
     15 C         142.9426  141.3933  158.7830 C.ar    1  UNL1        0.0484
     16 C         142.9221  139.9359  158.4288 C.ar    1  UNL1        0.0811
     17 C         139.8658  138.6995  165.2617 C.3     1  UNL1        0.0718
     18 N         140.5726  139.4040  166.3816 N.am    1  UNL1       -0.3025
     19 C         140.3947  140.8815  166.5690 C.2     1  UNL1        0.2458
     20 O         139.5100  141.6547  165.6365 O.2     1  UNL1       -0.2701
     21 H         141.1532  138.8965  166.9936 H       1  UNL1        0.1497
     22 C         141.1015  141.5860  167.6890 C.ar    1  UNL1        0.0534
     23 C         140.3128  142.3511  168.7099 C.ar    1  UNL1        0.0054
     24 C         141.0196  143.0556  169.8298 C.ar    1  UNL1        0.0115
     25 C         142.5151  142.9948  169.9288 C.ar    1  UNL1        0.0577
     26 CL        143.2218  143.6993  171.0487 Cl      1  UNL1       -0.0822
     27 C         143.3038  142.2297  168.9078 C.ar    1  UNL1        0.0115
     28 C         142.5971  141.5252  167.7878 C.ar    1  UNL1        0.0054
     29 C         137.7822  138.2959  166.7602 C.3     1  UNL1        0.0017
     30 C         138.5705  137.9890  165.5215 C.3     1  UNL1        0.0196
@<TRIPOS>BOND
     1    29    30    1
     2    17    30    1
     3    17    18    1
     4    18    19   am
     5    19    20    2
     6    19    22    1
     7    22    23   ar
     8    23    24   ar
     9    24    25   ar
    10    25    26    1
    11    25    27   ar
    12    27    28   ar
    13     1    17    1
    14     1     2    1
    15     2     3    1
    16     3     4    1
    17     4     7    1
    18     7     8   ar
    19     8     9   ar
    20     9    10   ar
    21    10    11   ar
    22    11    12   ar
    23    12    13   ar
    24    13    14    1
    25    13    15   ar
    26    15    16   ar
    27     4     5    1
    28     6     5    1
    29    28    22   ar
    30     6     1    1
    31     6     2    1
    32    16     7   ar
    33    16    10   ar
    34    18    21    1
@<TRIPOS>MOLECULE
*****
 30 34 0 0 0
SMALL
GASTEIGER

@<TRIPOS>ATOM
      1 C         142.4234  138.4747  158.1043 C.3     1  UNL1        0.0181
      2 C         142.4767  138.7371  159.5803 C.3     1  UNL1        0.0036
      3 C         142.7076  139.2443  160.9730 C.3     1  UNL1        0.0227
      4 C         143.5682  140.4695  160.8834 C.3     1  UNL1        0.0870
      5 C         143.8692  140.7197  159.4354 C.3     1  UNL1        0.0227
      6 C         143.1946  139.6490  158.6300 C.3     1  UNL1        0.0036
      7 N         144.0443  141.2991  162.0389 N.ar    1  UNL1       -0.3109
      8 C         145.1682  140.9519  162.9696 C.ar    1  UNL1        0.1785
      9 N         145.2985  142.0597  163.9725 N.ar    1  UNL1       -0.2239
     10 C         144.2550  143.0915  163.6617 C.ar    1  UNL1        0.0989
     11 C         143.9106  144.3983  164.3124 C.ar    1  UNL1        0.0229
     12 C         142.7910  145.2351  163.7681 C.ar    1  UNL1        0.0313
     13 C         142.0158  144.7650  162.5731 C.ar    1  UNL1        0.1417
     14 F         140.8962  145.6018  162.0288 F       1  UNL1       -0.2041
     15 C         142.3603  143.4581  161.9223 C.ar    1  UNL1        0.0484
     16 C         143.4799  142.6214  162.4666 C.ar    1  UNL1        0.0811
     17 C         141.9474  137.6452  156.9489 C.3     1  UNL1        0.0718
     18 N         142.2033  136.1673  156.9308 N.am    1  UNL1       -0.3025
     19 C         143.4780  135.6340  156.3472 C.2     1  UNL1        0.2458
     20 O         144.4969  136.5785  155.7817 O.2     1  UNL1       -0.2701
     21 H         141.5345  135.5474  157.3019 H       1  UNL1        0.1497
     22 C         143.7339  134.1560  156.3291 C.ar    1  UNL1        0.0534
     23 C         143.4001  133.3520  155.1076 C.ar    1  UNL1        0.0054
     24 C         143.6560  131.8741  155.0895 C.ar    1  UNL1        0.0115
     25 C         144.2456  131.2002  156.2930 C.ar    1  UNL1        0.0577
     26 CL        144.5014  129.7223  156.2748 Cl      1  UNL1       -0.0822
     27 C         144.5793  132.0042  157.5145 C.ar    1  UNL1        0.0115
     28 C         144.3235  133.4821  157.5326 C.ar    1  UNL1        0.0054
     29 C         139.9094  138.9884  156.0587 C.3     1  UNL1        0.0017
     30 C         141.2155  138.2936  155.8113 C.3     1  UNL1        0.0196
@<TRIPOS>BOND
     1    29    30    1
     2    17    30    1
     3    17    18    1
     4    18    19   am
     5    19    20    2
     6    19    22    1
     7    22    23   ar
     8    23    24   ar
     9    24    25   ar
    10    25    26    1
    11    25    27   ar
    12    27    28   ar
    13     1    17    1
    14     1     2    1
    15     2     3    1
    16     3     4    1
    17     4     7    1
    18     7     8   ar
    19     8     9   ar
    20     9    10   ar
    21    10    11   ar
    22    11    12   ar
    23    12    13   ar
    24    13    14    1
    25    13    15   ar
    26    15    16   ar
    27     4     5    1
    28     6     5    1
    29    28    22   ar
    30     6     1    1
    31     6     2    1
    32    16     7   ar
    33    16    10   ar
    34    18    21    1
@<TRIPOS>MOLECULE
*****
 30 34 0 0 0
SMALL
GASTEIGER

@<TRIPOS>ATOM
      1 C         143.6044  139.8228  161.8778 C.3     1  UNL1        0.0181
      2 C         143.3013  138.4933  161.2527 C.3     1  UNL1        0.0036
      3 C         142.9752  137.3307  160.3628 C.3     1  UNL1        0.0227
      4 C         142.8023  137.8498  158.9663 C.3     1  UNL1        0.0870
      5 C         143.0215  139.3335  158.9929 C.3     1  UNL1        0.0227
      6 C         143.3299  139.7312  160.4059 C.3     1  UNL1        0.0036
      7 N         142.4688  137.0295  157.7556 N.ar    1  UNL1       -0.3109
      8 C         143.2258  135.8300  157.2674 C.ar    1  UNL1        0.1785
      9 N         142.5446  135.3238  156.0306 N.ar    1  UNL1       -0.2239
     10 C         141.3666  136.2104  155.7544 C.ar    1  UNL1        0.0989
     11 C         140.3305  136.1940  154.6698 C.ar    1  UNL1        0.0229
     12 C         139.2477  137.2318  154.6514 C.ar    1  UNL1        0.0313
     13 C         139.2009  138.2860  155.7175 C.ar    1  UNL1        0.1417
     14 F         138.1179  139.3238  155.6990 F       1  UNL1       -0.2041
     15 C         140.2369  138.3024  156.8020 C.ar    1  UNL1        0.0484
     16 C         141.3198  137.2646  156.8205 C.ar    1  UNL1        0.0811
     17 C         143.9379  140.6432  163.0884 C.3     1  UNL1        0.0718
     18 N         142.9524  140.7544  164.2137 N.am    1  UNL1       -0.3025
     19 C         143.0329  139.8111  165.3772 C.2     1  UNL1        0.2458
     20 O         144.0988  138.7565  165.4154 O.2     1  UNL1       -0.2701
     21 H         142.2528  141.4466  164.1887 H       1  UNL1        0.1497
     22 C         142.0473  139.9224  166.5026 C.ar    1  UNL1        0.0534
     23 C         142.5214  139.8560  167.9241 C.ar    1  UNL1        0.0054
     24 C         141.5359  139.9673  169.0494 C.ar    1  UNL1        0.0115
     25 C         140.0762  140.1451  168.7532 C.ar    1  UNL1        0.0577
     26 CL        139.0907  140.2564  169.8785 Cl      1  UNL1       -0.0822
     27 C         139.6021  140.2115  167.3317 C.ar    1  UNL1        0.0115
     28 C         140.5876  140.1002  166.2063 C.ar    1  UNL1        0.0054
     29 C         145.5135  142.3279  164.2839 C.3     1  UNL1        0.0017
     30 C         145.2570  141.3523  163.1738 C.3     1  UNL1        0.0196
@<TRIPOS>BOND
     1    29    30    1
     2    17    30    1
     3    17    18    1
     4    18    19   am
     5    19    20    2
     6    19    22    1
     7    22    23   ar
     8    23    24   ar
     9    24    25   ar
    10    25    26    1
    11    25    27   ar
    12    27    28   ar
    13     1    17    1
    14     1     2    1
    15     2     3    1
    16     3     4    1
    17     4     7    1
    18     7     8   ar
    19     8     9   ar
    20     9    10   ar
    21    10    11   ar
    22    11    12   ar
    23    12    13   ar
    24    13    14    1
    25    13    15   ar
    26    15    16   ar
    27     4     5    1
    28     6     5    1
    29    28    22   ar
    30     6     1    1
    31     6     2    1
    32    16     7   ar
    33    16    10   ar
    34    18    21    1
