@<TRIPOS>MOLECULE
*****
 38 43 0 0 0
SMALL
GASTEIGER

@<TRIPOS>ATOM
      1 C         142.9310  138.0581  159.6967 C.ar    1  UNL1        0.1233
      2 C         142.2886  137.8941  161.0423 C.ar    1  UNL1        0.1180
      3 N         142.8668  138.9291  161.9612 N.ar    1  UNL1       -0.2233
      4 N         143.8666  139.7327  161.1836 N.ar    1  UNL1       -0.0634
      5 N         143.9063  139.1944  159.7841 N.ar    1  UNL1       -0.1287
      6 C         142.5082  139.1258  163.4044 C.3     1  UNL1        0.1827
      7 C         143.5499  138.7026  164.3974 C.3     1  UNL1        0.0339
      8 C         143.4959  138.7689  165.8949 C.3     1  UNL1        0.0041
      9 C         142.3871  139.2747  166.7694 C.3     1  UNL1        0.0183
     10 C         142.7409  139.1629  168.2228 C.3     1  UNL1        0.0016
     11 C         141.7660  139.6155  169.2690 C.3     1  UNL1        0.0001
     12 C         140.4372  140.1800  168.8618 C.3     1  UNL1        0.0017
     13 C         140.0834  140.2918  167.4085 C.3     1  UNL1        0.0198
     14 C         141.0583  139.8392  166.3623 C.3     1  UNL1        0.0756
     15 N         140.5102  140.0372  164.9801 N.am    1  UNL1       -0.2755
     16 C         141.1554  139.7198  163.6637 C.2     1  UNL1        0.2483
     17 O         140.3402  140.0384  162.4457 O.2     1  UNL1       -0.2728
     18 C         139.1350  140.6314  164.9043 C.3     1  UNL1        0.1201
     19 C         138.9586  142.0654  164.5012 C.ar    1  UNL1       -0.0023
     20 C         139.9194  143.1065  164.9940 C.ar    1  UNL1       -0.0026
     21 C         139.7431  144.5406  164.5909 C.ar    1  UNL1       -0.0003
     22 C         138.6059  144.9334  163.6950 C.ar    1  UNL1       -0.0000
     23 C         137.6452  143.8922  163.2021 C.ar    1  UNL1       -0.0003
     24 C         137.8215  142.4581  163.6052 C.ar    1  UNL1       -0.0026
     25 C         143.1310  135.1372  157.0176 C.ar    1  UNL1        0.1547
     26 C         143.4142  135.9642  158.2364 C.ar    1  UNL1        0.0400
     27 C         142.6479  137.2309  158.4779 C.ar    1  UNL1        0.0241
     28 C         141.5984  137.6704  157.5004 C.ar    1  UNL1        0.0033
     29 C         141.3153  136.8433  156.2816 C.ar    1  UNL1        0.0207
     30 C         142.0816  135.5767  156.0402 C.ar    1  UNL1        0.0994
     31 N         141.7984  134.7495  154.8212 N.ar    1  UNL1       -0.2839
     32 C         142.0204  135.1707  153.3988 C.ar    1  UNL1        0.1826
     33 N         141.6027  134.0375  152.5093 N.ar    1  UNL1       -0.2280
     34 C         141.1225  132.9160  153.3819 C.ar    1  UNL1        0.0786
     35 C         140.6111  131.5876  152.9087 C.3     1  UNL1        0.0538
     36 C         141.2434  133.3560  154.8108 C.ar    1  UNL1        0.0963
     37 C         144.5281  133.1445  157.9273 C.3     1  UNL1        0.2525
     38 O         143.8974  133.8705  156.7761 O.3     1  UNL1       -0.4700
@<TRIPOS>BOND
     1    37    38    1
     2    38    25    1
     3    25    26   ar
     4    26    27   ar
     5    27     1    1
     6     1     2   ar
     7     2     3   ar
     8     3     6    1
     9     6     7    1
    10     7     8    1
    11     9     8    1
    12     9    10    1
    13    10    11    1
    14    11    12    1
    15    12    13    1
    16    14    13    1
    17    14    15    1
    18    15    18    1
    19    18    19    1
    20    19    20   ar
    21    20    21   ar
    22    21    22   ar
    23    22    23   ar
    24    23    24   ar
    25    15    16   am
    26    16    17    2
    27     3     4   ar
    28     4     5   ar
    29    27    28   ar
    30    28    29   ar
    31    29    30   ar
    32    30    31    1
    33    31    32   ar
    34    32    33   ar
    35    33    34   ar
    36    34    35    1
    37    34    36   ar
    38    30    25   ar
    39    36    31   ar
    40     5     1   ar
    41    16     6    1
    42    14     9    1
    43    24    19   ar
@<TRIPOS>MOLECULE
*****
 38 43 0 0 0
SMALL
GASTEIGER

@<TRIPOS>ATOM
      1 C         143.5237  139.6147  160.3683 C.ar    1  UNL1        0.1233
      2 C         143.2507  140.2077  161.7188 C.ar    1  UNL1        0.1180
      3 N         142.8000  139.1029  162.6277 N.ar    1  UNL1       -0.2233
      4 N         142.7944  137.8270  161.8389 N.ar    1  UNL1       -0.0634
      5 N         143.2416  138.1434  160.4425 N.ar    1  UNL1       -0.1287
      6 C         142.4214  139.2483  164.0719 C.3     1  UNL1        0.1827
      7 C         143.4607  138.8169  165.0638 C.3     1  UNL1        0.0339
      8 C         143.3887  138.8365  166.5619 C.3     1  UNL1        0.0041
      9 C         142.2599  139.2925  167.4382 C.3     1  UNL1        0.0183
     10 C         142.5999  139.1440  168.8916 C.3     1  UNL1        0.0016
     11 C         141.6041  139.5444  169.9394 C.3     1  UNL1        0.0001
     12 C         140.2683  140.0933  169.5339 C.3     1  UNL1        0.0017
     13 C         139.9283  140.2418  168.0806 C.3     1  UNL1        0.0198
     14 C         140.9241  139.8414  167.0327 C.3     1  UNL1        0.0756
     15 N         140.3873  140.0699  165.6508 N.am    1  UNL1       -0.2755
     16 C         141.0536  139.8060  164.3331 C.2     1  UNL1        0.2483
     17 O         140.2454  140.1445  163.1157 O.2     1  UNL1       -0.2728
     18 C         139.0008  140.6374  165.5768 C.3     1  UNL1        0.1201
     19 C         138.7818  142.0121  165.0179 C.ar    1  UNL1       -0.0023
     20 C         139.6198  143.1595  165.4989 C.ar    1  UNL1       -0.0026
     21 C         139.4008  144.5342  164.9400 C.ar    1  UNL1       -0.0003
     22 C         138.3440  144.7615  163.9001 C.ar    1  UNL1       -0.0000
     23 C         137.5060  143.6140  163.4191 C.ar    1  UNL1       -0.0003
     24 C         137.7249  142.2393  163.9780 C.ar    1  UNL1       -0.0026
     25 C         144.4119  140.4593  156.5938 C.ar    1  UNL1        0.1547
     26 C         143.9399  139.7121  157.8056 C.ar    1  UNL1        0.0400
     27 C         143.9958  140.3620  159.1564 C.ar    1  UNL1        0.0241
     28 C         144.5237  141.7591  159.2952 C.ar    1  UNL1        0.0033
     29 C         144.9958  142.5063  158.0832 C.ar    1  UNL1        0.0207
     30 C         144.9399  141.8564  156.7326 C.ar    1  UNL1        0.0994
     31 N         145.4121  142.6037  155.5206 N.ar    1  UNL1       -0.2839
     32 C         144.5378  143.2510  154.4878 C.ar    1  UNL1        0.1826
     33 N         145.4267  143.8822  153.4577 N.ar    1  UNL1       -0.2280
     34 C         146.8504  143.6250  153.8537 C.ar    1  UNL1        0.0786
     35 C         148.0692  144.0784  153.1061 C.3     1  UNL1        0.0538
     36 C         146.8414  142.8349  155.1287 C.ar    1  UNL1        0.0963
     37 C         144.8082  138.3891  155.0748 C.3     1  UNL1        0.2525
     38 O         144.3561  139.8094  155.2430 O.3     1  UNL1       -0.4700
@<TRIPOS>BOND
     1    37    38    1
     2    38    25    1
     3    25    26   ar
     4    26    27   ar
     5    27     1    1
     6     1     2   ar
     7     2     3   ar
     8     3     6    1
     9     6     7    1
    10     7     8    1
    11     9     8    1
    12     9    10    1
    13    10    11    1
    14    11    12    1
    15    12    13    1
    16    14    13    1
    17    14    15    1
    18    15    18    1
    19    18    19    1
    20    19    20   ar
    21    20    21   ar
    22    21    22   ar
    23    22    23   ar
    24    23    24   ar
    25    15    16   am
    26    16    17    2
    27     3     4   ar
    28     4     5   ar
    29    27    28   ar
    30    28    29   ar
    31    29    30   ar
    32    30    31    1
    33    31    32   ar
    34    32    33   ar
    35    33    34   ar
    36    34    35    1
    37    34    36   ar
    38    30    25   ar
    39    36    31   ar
    40     5     1   ar
    41    16     6    1
    42    14     9    1
    43    24    19   ar
@<TRIPOS>MOLECULE
*****
 38 43 0 0 0
SMALL
GASTEIGER

@<TRIPOS>ATOM
      1 C         142.9199  137.3746  157.6886 C.ar    1  UNL1        0.1233
      2 C         142.7651  137.6481  159.1554 C.ar    1  UNL1        0.1180
      3 N         143.0947  139.0917  159.3950 N.ar    1  UNL1       -0.2233
      4 N         143.4532  139.7103  158.0764 N.ar    1  UNL1       -0.0634
      5 N         143.3452  138.6491  157.0218 N.ar    1  UNL1       -0.1287
      6 C         143.0701  139.7934  160.7205 C.3     1  UNL1        0.1827
      7 C         144.4054  140.2148  161.2587 C.3     1  UNL1        0.0339
      8 C         144.7137  140.9278  162.5419 C.3     1  UNL1        0.0041
      9 C         143.7632  141.3955  163.6038 C.3     1  UNL1        0.0183
     10 C         144.4888  142.0681  164.7312 C.3     1  UNL1        0.0016
     11 C         143.7206  142.6108  165.8996 C.3     1  UNL1        0.0001
     12 C         142.2268  142.4810  165.9406 C.3     1  UNL1        0.0017
     13 C         141.5012  141.8084  164.8132 C.3     1  UNL1        0.0198
     14 C         142.2694  141.2657  163.6448 C.3     1  UNL1        0.0756
     15 N         141.3573  140.6361  162.6340 N.am    1  UNL1       -0.2755
     16 C         141.7136  139.9809  161.3326 C.2     1  UNL1        0.2483
     17 O         140.5610  139.4419  160.5382 O.2     1  UNL1       -0.2728
     18 C         139.8954  140.6657  162.9690 C.3     1  UNL1        0.1201
     19 C         139.3443  139.7316  164.0052 C.ar    1  UNL1       -0.0023
     20 C         138.4856  140.2639  165.1139 C.ar    1  UNL1       -0.0026
     21 C         137.9344  139.3299  166.1502 C.ar    1  UNL1       -0.0003
     22 C         138.2419  137.8635  166.0777 C.ar    1  UNL1       -0.0000
     23 C         139.1006  137.3312  164.9689 C.ar    1  UNL1       -0.0003
     24 C         139.6518  138.2652  163.9326 C.ar    1  UNL1       -0.0026
     25 C         143.0896  133.4941  156.8745 C.ar    1  UNL1        0.1547
     26 C         143.3197  134.8109  157.5549 C.ar    1  UNL1        0.0400
     27 C         142.6899  136.0577  157.0083 C.ar    1  UNL1        0.0241
     28 C         141.8300  135.9877  155.7812 C.ar    1  UNL1        0.0033
     29 C         141.5999  134.6708  155.1008 C.ar    1  UNL1        0.0207
     30 C         142.2297  133.4241  155.6475 C.ar    1  UNL1        0.0994
     31 N         141.9995  132.1072  154.9670 N.ar    1  UNL1       -0.2839
     32 C         143.0177  131.3263  154.1901 C.ar    1  UNL1        0.1826
     33 N         142.3583  130.0766  153.6870 N.ar    1  UNL1       -0.2280
     34 C         140.9326  130.0849  154.1530 C.ar    1  UNL1        0.0786
     35 C         139.9083  129.0245  153.8764 C.3     1  UNL1        0.0538
     36 C         140.7108  131.3399  154.9441 C.ar    1  UNL1        0.0963
     37 C         145.1994  132.1972  157.6598 C.3     1  UNL1        0.2525
     38 O         143.7194  132.2473  157.4212 O.3     1  UNL1       -0.4700
@<TRIPOS>BOND
     1    37    38    1
     2    38    25    1
     3    25    26   ar
     4    26    27   ar
     5    27     1    1
     6     1     2   ar
     7     2     3   ar
     8     3     6    1
     9     6     7    1
    10     7     8    1
    11     9     8    1
    12     9    10    1
    13    10    11    1
    14    11    12    1
    15    12    13    1
    16    14    13    1
    17    14    15    1
    18    15    18    1
    19    18    19    1
    20    19    20   ar
    21    20    21   ar
    22    21    22   ar
    23    22    23   ar
    24    23    24   ar
    25    15    16   am
    26    16    17    2
    27     3     4   ar
    28     4     5   ar
    29    27    28   ar
    30    28    29   ar
    31    29    30   ar
    32    30    31    1
    33    31    32   ar
    34    32    33   ar
    35    33    34   ar
    36    34    35    1
    37    34    36   ar
    38    30    25   ar
    39    36    31   ar
    40     5     1   ar
    41    16     6    1
    42    14     9    1
    43    24    19   ar
@<TRIPOS>MOLECULE
*****
 38 43 0 0 0
SMALL
GASTEIGER

@<TRIPOS>ATOM
      1 C         142.4058  138.5408  158.1028 C.ar    1  UNL1        0.1233
      2 C         141.4592  139.0840  159.1318 C.ar    1  UNL1        0.1180
      3 N         142.1039  140.2786  159.7700 N.ar    1  UNL1       -0.2233
      4 N         143.4490  140.4737  159.1354 N.ar    1  UNL1       -0.0634
      5 N         143.6356  139.3997  158.1050 N.ar    1  UNL1       -0.1287
      6 C         141.5082  141.1287  160.8527 C.3     1  UNL1        0.1827
      7 C         140.9123  142.4303  160.4045 C.3     1  UNL1        0.0339
      8 C         140.2482  143.4895  161.2334 C.3     1  UNL1        0.0041
      9 C         140.0159  143.5088  162.7152 C.3     1  UNL1        0.0183
     10 C         139.3128  144.7627  163.1433 C.3     1  UNL1        0.0016
     11 C         138.9841  144.9813  164.5904 C.3     1  UNL1        0.0001
     12 C         139.3585  143.9461  165.6093 C.3     1  UNL1        0.0017
     13 C         140.0616  142.6923  165.1811 C.3     1  UNL1        0.0198
     14 C         140.3903  142.4736  163.7341 C.3     1  UNL1        0.0756
     15 N         141.0896  141.1635  163.5228 N.am    1  UNL1       -0.2755
     16 C         141.5871  140.5649  162.2405 C.2     1  UNL1        0.2483
     17 O         142.2512  139.2255  162.3621 O.2     1  UNL1       -0.2728
     18 C         141.3220  140.3434  164.7571 C.3     1  UNL1        0.1201
     19 C         140.2104  139.5120  165.3256 C.ar    1  UNL1       -0.0023
     20 C         139.7860  138.2519  164.6315 C.ar    1  UNL1       -0.0026
     21 C         138.6744  137.4204  165.2000 C.ar    1  UNL1       -0.0003
     22 C         137.9873  137.8492  166.4626 C.ar    1  UNL1       -0.0000
     23 C         138.4118  139.1094  167.1567 C.ar    1  UNL1       -0.0003
     24 C         139.5234  139.9409  166.5882 C.ar    1  UNL1       -0.0026
     25 C         142.9309  135.0448  156.2996 C.ar    1  UNL1        0.1547
     26 C         143.1718  136.2373  157.1768 C.ar    1  UNL1        0.0400
     27 C         142.1649  137.3481  157.2256 C.ar    1  UNL1        0.0241
     28 C         140.9172  137.2662  156.3971 C.ar    1  UNL1        0.0033
     29 C         140.6763  136.0736  155.5199 C.ar    1  UNL1        0.0207
     30 C         141.6831  134.9629  155.4712 C.ar    1  UNL1        0.0994
     31 N         141.4422  133.7702  154.5939 N.ar    1  UNL1       -0.2839
     32 C         141.5829  133.7308  153.1010 C.ar    1  UNL1        0.1826
     33 N         141.2459  132.3438  152.6401 N.ar    1  UNL1       -0.2280
     34 C         140.8969  131.5259  153.8479 C.ar    1  UNL1        0.0786
     35 C         140.4968  130.0802  153.8483 C.3     1  UNL1        0.0538
     36 C         141.0182  132.4074  155.0555 C.ar    1  UNL1        0.0963
     37 C         144.2089  133.1131  157.4766 C.3     1  UNL1        0.2525
     38 O         143.9378  133.9340  156.2508 O.3     1  UNL1       -0.4700
@<TRIPOS>BOND
     1    37    38    1
     2    38    25    1
     3    25    26   ar
     4    26    27   ar
     5    27     1    1
     6     1     2   ar
     7     2     3   ar
     8     3     6    1
     9     6     7    1
    10     7     8    1
    11     9     8    1
    12     9    10    1
    13    10    11    1
    14    11    12    1
    15    12    13    1
    16    14    13    1
    17    14    15    1
    18    15    18    1
    19    18    19    1
    20    19    20   ar
    21    20    21   ar
    22    21    22   ar
    23    22    23   ar
    24    23    24   ar
    25    15    16   am
    26    16    17    2
    27     3     4   ar
    28     4     5   ar
    29    27    28   ar
    30    28    29   ar
    31    29    30   ar
    32    30    31    1
    33    31    32   ar
    34    32    33   ar
    35    33    34   ar
    36    34    35    1
    37    34    36   ar
    38    30    25   ar
    39    36    31   ar
    40     5     1   ar
    41    16     6    1
    42    14     9    1
    43    24    19   ar
@<TRIPOS>MOLECULE
*****
 38 43 0 0 0
SMALL
GASTEIGER

@<TRIPOS>ATOM
      1 C         142.5158  138.7617  160.0143 C.ar    1  UNL1        0.1233
      2 C         141.8977  139.1990  161.3092 C.ar    1  UNL1        0.1180
      3 N         142.9749  139.2216  162.3527 N.ar    1  UNL1       -0.2233
      4 N         144.2588  138.7982  161.7028 N.ar    1  UNL1       -0.0634
      5 N         143.9750  138.5139  160.2576 N.ar    1  UNL1       -0.1287
      6 C         142.7991  139.6009  163.7933 C.3     1  UNL1        0.1827
      7 C         143.0479  138.5072  164.7893 C.3     1  UNL1        0.0339
      8 C         142.9568  138.5664  166.2854 C.3     1  UNL1        0.0041
      9 C         142.5944  139.7337  167.1549 C.3     1  UNL1        0.0183
     10 C         142.6226  139.3639  168.6084 C.3     1  UNL1        0.0016
     11 C         142.2900  140.3907  169.6500 C.3     1  UNL1        0.0001
     12 C         141.9292  141.7873  169.2382 C.3     1  UNL1        0.0017
     13 C         141.9011  142.1570  167.7848 C.3     1  UNL1        0.0198
     14 C         142.2337  141.1302  166.7432 C.3     1  UNL1        0.0756
     15 N         142.1462  141.7043  165.3601 N.am    1  UNL1       -0.2755
     16 C         142.3978  141.0238  164.0473 C.2     1  UNL1        0.2483
     17 O         142.2254  141.8791  162.8272 O.2     1  UNL1       -0.2728
     18 C         141.7553  143.1503  165.2792 C.3     1  UNL1        0.1201
     19 C         140.4281  143.5371  164.6970 C.ar    1  UNL1       -0.0023
     20 C         139.1979  142.7547  165.0497 C.ar    1  UNL1       -0.0026
     21 C         137.8706  143.1415  164.4675 C.ar    1  UNL1       -0.0003
     22 C         137.7737  144.3106  163.5327 C.ar    1  UNL1       -0.0000
     23 C         139.0040  145.0929  163.1800 C.ar    1  UNL1       -0.0003
     24 C         140.3313  144.7061  163.7622 C.ar    1  UNL1       -0.0026
     25 C         139.7206  139.0341  157.2103 C.ar    1  UNL1        0.1547
     26 C         140.4360  139.1954  158.5187 C.ar    1  UNL1        0.0400
     27 C         141.8002  138.6004  158.7059 C.ar    1  UNL1        0.0241
     28 C         142.4488  137.8440  157.5846 C.ar    1  UNL1        0.0033
     29 C         141.7333  137.6828  156.2762 C.ar    1  UNL1        0.0207
     30 C         140.3692  138.2778  156.0890 C.ar    1  UNL1        0.0994
     31 N         139.6536  138.1164  154.7805 N.ar    1  UNL1       -0.2839
     32 C         140.0508  138.7405  153.4756 C.ar    1  UNL1        0.1826
     33 N         139.0580  138.3124  152.4360 N.ar    1  UNL1       -0.2280
     34 C         138.0472  137.4239  153.0982 C.ar    1  UNL1        0.0786
     35 C         136.8741  136.7711  152.4290 C.3     1  UNL1        0.0538
     36 C         138.4153  137.3027  154.5473 C.ar    1  UNL1        0.0963
     37 C         137.9127  140.7737  157.8852 C.3     1  UNL1        0.2525
     38 O         138.3564  139.6292  157.0231 O.3     1  UNL1       -0.4700
@<TRIPOS>BOND
     1    37    38    1
     2    38    25    1
     3    25    26   ar
     4    26    27   ar
     5    27     1    1
     6     1     2   ar
     7     2     3   ar
     8     3     6    1
     9     6     7    1
    10     7     8    1
    11     9     8    1
    12     9    10    1
    13    10    11    1
    14    11    12    1
    15    12    13    1
    16    14    13    1
    17    14    15    1
    18    15    18    1
    19    18    19    1
    20    19    20   ar
    21    20    21   ar
    22    21    22   ar
    23    22    23   ar
    24    23    24   ar
    25    15    16   am
    26    16    17    2
    27     3     4   ar
    28     4     5   ar
    29    27    28   ar
    30    28    29   ar
    31    29    30   ar
    32    30    31    1
    33    31    32   ar
    34    32    33   ar
    35    33    34   ar
    36    34    35    1
    37    34    36   ar
    38    30    25   ar
    39    36    31   ar
    40     5     1   ar
    41    16     6    1
    42    14     9    1
    43    24    19   ar
@<TRIPOS>MOLECULE
*****
 38 43 0 0 0
SMALL
GASTEIGER

@<TRIPOS>ATOM
      1 C         142.2716  138.5398  158.3140 C.ar    1  UNL1        0.1233
      2 C         141.2381  139.0823  159.2561 C.ar    1  UNL1        0.1180
      3 N         141.8356  140.2561  159.9738 N.ar    1  UNL1       -0.2233
      4 N         143.2385  140.4391  159.4752 N.ar    1  UNL1       -0.0634
      5 N         143.5079  139.3784  158.4494 N.ar    1  UNL1       -0.1287
      6 C         141.1506  141.0990  161.0084 C.3     1  UNL1        0.1827
      7 C         139.7356  141.4882  160.6979 C.3     1  UNL1        0.0339
      8 C         138.7918  142.3157  161.5191 C.3     1  UNL1        0.0041
      9 C         139.0296  142.9585  162.8534 C.3     1  UNL1        0.0183
     10 C         137.8161  143.7014  163.3279 C.3     1  UNL1        0.0016
     11 C         137.8432  144.4183  164.6452 C.3     1  UNL1        0.0001
     12 C         139.0838  144.3922  165.4880 C.3     1  UNL1        0.0017
     13 C         140.2974  143.6493  165.0134 C.3     1  UNL1        0.0198
     14 C         140.2703  142.9324  163.6961 C.3     1  UNL1        0.0756
     15 N         141.5794  142.2571  163.4126 N.am    1  UNL1       -0.2755
     16 C         141.9712  141.4412  162.2165 C.2     1  UNL1        0.2483
     17 O         143.3682  140.8953  162.2303 O.2     1  UNL1       -0.2728
     18 C         142.6364  142.4193  164.4644 C.3     1  UNL1        0.1201
     19 C         142.6370  141.5279  165.6709 C.ar    1  UNL1       -0.0023
     20 C         142.3935  140.0560  165.5159 C.ar    1  UNL1       -0.0026
     21 C         142.3941  139.1645  166.7223 C.ar    1  UNL1       -0.0003
     22 C         142.6382  139.7451  168.0837 C.ar    1  UNL1       -0.0000
     23 C         142.8818  141.2171  168.2387 C.ar    1  UNL1       -0.0003
     24 C         142.8812  142.1086  167.0322 C.ar    1  UNL1       -0.0026
     25 C         142.9695  135.1130  156.4379 C.ar    1  UNL1        0.1547
     26 C         143.1421  136.2878  157.3544 C.ar    1  UNL1        0.0400
     27 C         142.0991  137.3650  157.3975 C.ar    1  UNL1        0.0241
     28 C         140.8836  137.2674  156.5240 C.ar    1  UNL1        0.0033
     29 C         140.7111  136.0926  155.6074 C.ar    1  UNL1        0.0207
     30 C         141.7540  135.0154  155.5644 C.ar    1  UNL1        0.0994
     31 N         141.5815  133.8406  154.6478 N.ar    1  UNL1       -0.2839
     32 C         141.8307  133.8322  153.1687 C.ar    1  UNL1        0.1826
     33 N         141.5326  132.4544  152.6562 N.ar    1  UNL1       -0.2280
     34 C         141.0992  131.6112  153.8185 C.ar    1  UNL1        0.0786
     35 C         140.7047  130.1651  153.7603 C.3     1  UNL1        0.0538
     36 C         141.1293  132.4679  155.0495 C.ar    1  UNL1        0.0963
     37 C         144.2395  133.1633  157.5937 C.3     1  UNL1        0.2525
     38 O         144.0125  134.0358  156.3949 O.3     1  UNL1       -0.4700
@<TRIPOS>BOND
     1    37    38    1
     2    38    25    1
     3    25    26   ar
     4    26    27   ar
     5    27     1    1
     6     1     2   ar
     7     2     3   ar
     8     3     6    1
     9     6     7    1
    10     7     8    1
    11     9     8    1
    12     9    10    1
    13    10    11    1
    14    11    12    1
    15    12    13    1
    16    14    13    1
    17    14    15    1
    18    15    18    1
    19    18    19    1
    20    19    20   ar
    21    20    21   ar
    22    21    22   ar
    23    22    23   ar
    24    23    24   ar
    25    15    16   am
    26    16    17    2
    27     3     4   ar
    28     4     5   ar
    29    27    28   ar
    30    28    29   ar
    31    29    30   ar
    32    30    31    1
    33    31    32   ar
    34    32    33   ar
    35    33    34   ar
    36    34    35    1
    37    34    36   ar
    38    30    25   ar
    39    36    31   ar
    40     5     1   ar
    41    16     6    1
    42    14     9    1
    43    24    19   ar
@<TRIPOS>MOLECULE
*****
 38 43 0 0 0
SMALL
GASTEIGER

@<TRIPOS>ATOM
      1 C         142.6742  138.5900  160.2150 C.ar    1  UNL1        0.1233
      2 C         141.8736  138.7118  161.4776 C.ar    1  UNL1        0.1180
      3 N         142.8271  138.9563  162.6094 N.ar    1  UNL1       -0.2233
      4 N         144.2171  138.9855  162.0462 N.ar    1  UNL1       -0.0634
      5 N         144.1226  138.7591  160.5664 N.ar    1  UNL1       -0.1287
      6 C         142.4559  139.1393  164.0511 C.3     1  UNL1        0.1827
      7 C         143.4984  138.7292  165.0487 C.3     1  UNL1        0.0339
      8 C         143.4337  138.7868  166.5462 C.3     1  UNL1        0.0041
      9 C         142.3106  139.2687  167.4160 C.3     1  UNL1        0.0183
     10 C         142.6570  139.1556  168.8710 C.3     1  UNL1        0.0016
     11 C         141.6677  139.5858  169.9131 C.3     1  UNL1        0.0001
     12 C         140.3319  140.1292  169.5002 C.3     1  UNL1        0.0017
     13 C         139.9855  140.2423  168.0452 C.3     1  UNL1        0.0198
     14 C         140.9749  139.8121  167.0031 C.3     1  UNL1        0.0756
     15 N         140.4323  140.0077  165.6184 N.am    1  UNL1       -0.2755
     16 C         141.0914  139.7084  164.3046 C.2     1  UNL1        0.2483
     17 O         140.2785  140.0190  163.0829 O.2     1  UNL1       -0.2728
     18 C         139.0474  140.5783  165.5367 C.3     1  UNL1        0.1201
     19 C         138.8388  141.9692  165.0153 C.ar    1  UNL1       -0.0023
     20 C         137.7779  142.2339  163.9884 C.ar    1  UNL1       -0.0026
     21 C         137.5692  143.6248  163.4670 C.ar    1  UNL1       -0.0003
     22 C         138.4214  144.7510  163.9726 C.ar    1  UNL1       -0.0000
     23 C         139.4822  144.4863  164.9995 C.ar    1  UNL1       -0.0003
     24 C         139.6910  143.0954  165.5209 C.ar    1  UNL1       -0.0026
     25 C         142.0830  136.9456  156.6518 C.ar    1  UNL1        0.1547
     26 C         142.6341  137.1931  158.0247 C.ar    1  UNL1        0.0400
     27 C         142.1231  138.3424  158.8420 C.ar    1  UNL1        0.0241
     28 C         141.0610  139.2442  158.2863 C.ar    1  UNL1        0.0033
     29 C         140.5100  138.9967  156.9134 C.ar    1  UNL1        0.0207
     30 C         141.0209  137.8474  156.0961 C.ar    1  UNL1        0.0994
     31 N         140.4698  137.5999  154.7231 N.ar    1  UNL1       -0.2839
     32 C         141.1976  137.8140  153.4291 C.ar    1  UNL1        0.1826
     33 N         140.2717  137.4413  152.3094 N.ar    1  UNL1       -0.2280
     34 C         138.9717  136.9968  152.9113 C.ar    1  UNL1        0.0786
     35 C         137.7617  136.5353  152.1544 C.3     1  UNL1        0.0538
     36 C         139.0941  137.0948  154.4031 C.ar    1  UNL1        0.0963
     37 C         144.0364  135.7496  155.4255 C.3     1  UNL1        0.2525
     38 O         142.5940  135.7963  155.8345 O.3     1  UNL1       -0.4700
@<TRIPOS>BOND
     1    37    38    1
     2    38    25    1
     3    25    26   ar
     4    26    27   ar
     5    27     1    1
     6     1     2   ar
     7     2     3   ar
     8     3     6    1
     9     6     7    1
    10     7     8    1
    11     9     8    1
    12     9    10    1
    13    10    11    1
    14    11    12    1
    15    12    13    1
    16    14    13    1
    17    14    15    1
    18    15    18    1
    19    18    19    1
    20    19    20   ar
    21    20    21   ar
    22    21    22   ar
    23    22    23   ar
    24    23    24   ar
    25    15    16   am
    26    16    17    2
    27     3     4   ar
    28     4     5   ar
    29    27    28   ar
    30    28    29   ar
    31    29    30   ar
    32    30    31    1
    33    31    32   ar
    34    32    33   ar
    35    33    34   ar
    36    34    35    1
    37    34    36   ar
    38    30    25   ar
    39    36    31   ar
    40     5     1   ar
    41    16     6    1
    42    14     9    1
    43    24    19   ar
@<TRIPOS>MOLECULE
*****
 38 43 0 0 0
SMALL
GASTEIGER

@<TRIPOS>ATOM
      1 C         142.6934  140.3046  158.0855 C.ar    1  UNL1        0.1233
      2 C         142.5625  140.2538  159.5790 C.ar    1  UNL1        0.1180
      3 N         141.1716  139.7978  159.9071 N.ar    1  UNL1       -0.2233
      4 N         140.4430  139.5669  158.6165 N.ar    1  UNL1       -0.0634
      5 N         141.3835  139.8801  157.4907 N.ar    1  UNL1       -0.1287
      6 C         140.6084  139.6064  161.2841 C.3     1  UNL1        0.1827
      7 C         140.1379  138.2193  161.6078 C.3     1  UNL1        0.0339
      8 C         139.5329  137.7107  162.8826 C.3     1  UNL1        0.0041
      9 C         139.2489  138.4634  164.1487 C.3     1  UNL1        0.0183
     10 C         138.6357  137.5740  165.1892 C.3     1  UNL1        0.0016
     11 C         138.2733  138.1319  166.5336 C.3     1  UNL1        0.0001
     12 C         138.5242  139.5792  166.8374 C.3     1  UNL1        0.0017
     13 C         139.1375  140.4687  165.7969 C.3     1  UNL1        0.0198
     14 C         139.4998  139.9108  164.4525 C.3     1  UNL1        0.0756
     15 N         140.0967  140.9628  163.5653 N.am    1  UNL1       -0.2755
     16 C         140.5900  140.8274  162.1552 C.2     1  UNL1        0.2483
     17 O         141.1374  142.0783  161.5343 O.2     1  UNL1       -0.2728
     18 C         140.2159  142.3312  164.1679 C.3     1  UNL1        0.1201
     19 C         141.5696  142.9020  164.4711 C.ar    1  UNL1       -0.0023
     20 C         141.9892  144.2043  163.8564 C.ar    1  UNL1       -0.0026
     21 C         143.3429  144.7750  164.1595 C.ar    1  UNL1       -0.0003
     22 C         144.2769  144.0435  165.0773 C.ar    1  UNL1       -0.0000
     23 C         143.8572  142.7411  165.6920 C.ar    1  UNL1       -0.0003
     24 C         142.5036  142.1703  165.3889 C.ar    1  UNL1       -0.0026
     25 C         145.4748  140.4400  155.2580 C.ar    1  UNL1        0.1547
     26 C         144.2491  140.0355  156.0222 C.ar    1  UNL1        0.0400
     27 C         143.9191  140.7090  157.3212 C.ar    1  UNL1        0.0241
     28 C         144.8147  141.7869  157.8560 C.ar    1  UNL1        0.0033
     29 C         146.0404  142.1913  157.0916 C.ar    1  UNL1        0.0207
     30 C         146.3704  141.5179  155.7927 C.ar    1  UNL1        0.0994
     31 N         147.5961  141.9223  155.0284 N.ar    1  UNL1       -0.2839
     32 C         147.6249  142.7786  153.7971 C.ar    1  UNL1        0.1826
     33 N         149.0548  142.9270  153.3690 N.ar    1  UNL1       -0.2280
     34 C         149.9098  142.1624  154.3356 C.ar    1  UNL1        0.0786
     35 C         151.4040  142.0401  154.2855 C.3     1  UNL1        0.0538
     36 C         149.0083  141.5415  155.3612 C.ar    1  UNL1        0.0963
     37 C         145.0178  140.0920  152.7242 C.3     1  UNL1        0.2525
     38 O         145.8048  139.7665  153.9589 O.3     1  UNL1       -0.4700
@<TRIPOS>BOND
     1    37    38    1
     2    38    25    1
     3    25    26   ar
     4    26    27   ar
     5    27     1    1
     6     1     2   ar
     7     2     3   ar
     8     3     6    1
     9     6     7    1
    10     7     8    1
    11     9     8    1
    12     9    10    1
    13    10    11    1
    14    11    12    1
    15    12    13    1
    16    14    13    1
    17    14    15    1
    18    15    18    1
    19    18    19    1
    20    19    20   ar
    21    20    21   ar
    22    21    22   ar
    23    22    23   ar
    24    23    24   ar
    25    15    16   am
    26    16    17    2
    27     3     4   ar
    28     4     5   ar
    29    27    28   ar
    30    28    29   ar
    31    29    30   ar
    32    30    31    1
    33    31    32   ar
    34    32    33   ar
    35    33    34   ar
    36    34    35    1
    37    34    36   ar
    38    30    25   ar
    39    36    31   ar
    40     5     1   ar
    41    16     6    1
    42    14     9    1
    43    24    19   ar
@<TRIPOS>MOLECULE
*****
 38 43 0 0 0
SMALL
GASTEIGER

@<TRIPOS>ATOM
      1 C         142.3041  138.8639  160.9443 C.ar    1  UNL1        0.1233
      2 C         141.3135  138.3766  159.9288 C.ar    1  UNL1        0.1180
      3 N         142.0012  138.3276  158.5966 N.ar    1  UNL1       -0.2233
      4 N         143.4169  138.7846  158.7888 N.ar    1  UNL1       -0.0634
      5 N         143.6042  139.1160  160.2397 N.ar    1  UNL1       -0.1287
      6 C         141.3820  137.8972  157.3000 C.3     1  UNL1        0.1827
      7 C         140.0713  138.5421  156.9590 C.3     1  UNL1        0.0339
      8 C         139.2103  138.3279  155.7495 C.3     1  UNL1        0.0041
      9 C         139.4472  137.4159  154.5824 C.3     1  UNL1        0.0183
     10 C         138.3327  137.5047  153.5825 C.3     1  UNL1        0.0016
     11 C         138.3747  136.6704  152.3366 C.3     1  UNL1        0.0001
     12 C         139.5312  135.7474  152.0907 C.3     1  UNL1        0.0017
     13 C         140.6457  135.6586  153.0906 C.3     1  UNL1        0.0198
     14 C         140.6037  136.4928  154.3365 C.3     1  UNL1        0.0756
     15 N         141.8089  136.2539  155.1970 N.am    1  UNL1       -0.2755
     16 C         142.1553  136.8788  156.5158 C.2     1  UNL1        0.2483
     17 O         143.4456  136.4255  157.1320 O.2     1  UNL1       -0.2728
     18 C         142.7986  135.2582  154.6687 C.3     1  UNL1        0.1201
     19 C         142.8042  133.8539  155.1960 C.ar    1  UNL1       -0.0023
     20 C         141.6214  132.9611  154.9641 C.ar    1  UNL1       -0.0026
     21 C         141.6269  131.5568  155.4914 C.ar    1  UNL1       -0.0003
     22 C         142.8152  131.0454  156.2507 C.ar    1  UNL1       -0.0000
     23 C         143.9980  131.9384  156.4826 C.ar    1  UNL1       -0.0003
     24 C         143.9925  133.3426  155.9553 C.ar    1  UNL1       -0.0026
     25 C         141.7069  140.6509  164.4370 C.ar    1  UNL1        0.1547
     26 C         141.9701  140.4510  162.9740 C.ar    1  UNL1        0.0400
     27 C         142.0409  139.0639  162.4074 C.ar    1  UNL1        0.0241
     28 C         141.8486  137.8768  163.3039 C.ar    1  UNL1        0.0033
     29 C         141.5854  138.0768  164.7670 C.ar    1  UNL1        0.0207
     30 C         141.5146  139.4638  165.3336 C.ar    1  UNL1        0.0994
     31 N         141.2514  139.6637  166.7968 N.ar    1  UNL1       -0.2839
     32 C         142.2670  139.5684  167.8965 C.ar    1  UNL1        0.1826
     33 N         141.5696  139.8399  169.1963 N.ar    1  UNL1       -0.2280
     34 C         140.1230  140.1030  168.9002 C.ar    1  UNL1        0.0786
     35 C         139.0596  140.4194  169.9097 C.3     1  UNL1        0.0538
     36 C         139.9262  139.9941  167.4171 C.ar    1  UNL1        0.0963
     37 C         140.4152  142.8793  164.7767 C.3     1  UNL1        0.2525
     38 O         141.6360  142.0380  165.0036 O.3     1  UNL1       -0.4700
@<TRIPOS>BOND
     1    37    38    1
     2    38    25    1
     3    25    26   ar
     4    26    27   ar
     5    27     1    1
     6     1     2   ar
     7     2     3   ar
     8     3     6    1
     9     6     7    1
    10     7     8    1
    11     9     8    1
    12     9    10    1
    13    10    11    1
    14    11    12    1
    15    12    13    1
    16    14    13    1
    17    14    15    1
    18    15    18    1
    19    18    19    1
    20    19    20   ar
    21    20    21   ar
    22    21    22   ar
    23    22    23   ar
    24    23    24   ar
    25    15    16   am
    26    16    17    2
    27     3     4   ar
    28     4     5   ar
    29    27    28   ar
    30    28    29   ar
    31    29    30   ar
    32    30    31    1
    33    31    32   ar
    34    32    33   ar
    35    33    34   ar
    36    34    35    1
    37    34    36   ar
    38    30    25   ar
    39    36    31   ar
    40     5     1   ar
    41    16     6    1
    42    14     9    1
    43    24    19   ar
