@<TRIPOS>MOLECULE
*****
 29 33 0 0 0
SMALL
GASTEIGER

@<TRIPOS>ATOM
      1 N         138.0300  139.8066  170.3634 N.pl3   1  UNL1       -0.3133
      2 C         139.4101  140.3940  170.3634 C.2     1  UNL1        0.2770
      3 N         140.1451  140.9183  169.1655 N.2     1  UNL1       -0.2202
      4 C         141.4869  141.4087  169.6229 C.3     1  UNL1        0.1583
      5 C         141.5811  141.1874  171.1035 C.3     1  UNL1        0.2351
      6 O         140.2975  140.5603  171.5612 O.2     1  UNL1       -0.4478
      7 C         141.2489  141.5673  168.1505 C.ar    1  UNL1        0.0369
      8 C         139.9497  141.1206  167.5483 C.ar    1  UNL1        0.0153
      9 C         139.7117  141.2792  166.0758 C.ar    1  UNL1        0.0493
     10 C         140.7730  141.8846  165.2055 C.ar    1  UNL1        0.0177
     11 C         142.0721  142.3312  165.8077 C.ar    1  UNL1        0.0379
     12 C         142.3101  142.1726  167.2802 C.ar    1  UNL1        0.1365
     13 O         143.6093  142.6193  167.8823 O.3     1  UNL1       -0.4755
     14 C         143.8472  142.4606  169.3548 C.3     1  UNL1        0.2123
     15 C         142.7861  141.8553  170.2251 C.3     1  UNL1        0.1209
     16 C         142.7197  141.8996  169.8143 C.3     1  UNL1        0.1504
     17 O         142.7895  141.8530  170.2461 O.3     1  UNL1       -0.3532
     18 C         142.7197  141.8996  169.8143 C.3     1  UNL1        0.1504
     19 H         137.5235  139.7395  169.5218 H       1  UNL1        0.1466
     20 H         137.6306  139.4880  171.2050 H       1  UNL1        0.1466
     21 N         138.4126  140.8326  165.4736 N.pl3   1  UNL1       -0.2973
     22 H         137.5601  141.1336  165.8634 H       1  UNL1        0.1536
     23 C         138.4123  139.9273  164.2775 C.ar    1  UNL1        0.1428
     24 N         138.9578  138.5347  164.3909 N.ar    1  UNL1       -0.2282
     25 C         138.9575  137.6294  163.1949 C.ar    1  UNL1        0.1004
     26 C         138.4117  138.1168  161.8855 C.ar    1  UNL1        0.0216
     27 C         137.8661  139.5095  161.7722 C.ar    1  UNL1        0.0158
     28 C         137.8664  140.4147  162.9682 C.ar    1  UNL1        0.0893
     29 CL        137.3208  141.8074  162.8549 Cl      1  UNL1       -0.0793
@<TRIPOS>BOND
     1     1     2    1
     2     2     3    2
     3     3     4    1
     4     4     5    1
     5     5     6    1
     6     4     7    1
     7     7     8   ar
     8     8     9   ar
     9     9    21    1
    10    21    23    1
    11    23    24   ar
    12    24    25   ar
    13    25    26   ar
    14    26    27   ar
    15    27    28   ar
    16    28    29    1
    17     9    10   ar
    18    10    11   ar
    19    11    12   ar
    20    12    13    1
    21    13    14    1
    22    14    15    1
    23    15    16    1
    24    16    17    1
    25    17    18    1
    26     6     2    1
    27    12     7   ar
    28    18    15    1
    29    15     4    1
    30    28    23   ar
    31     1    19    1
    32     1    20    1
    33    21    22    1
@<TRIPOS>MOLECULE
*****
 29 33 0 0 0
SMALL
GASTEIGER

@<TRIPOS>ATOM
      1 N         144.1790  142.8794  170.0788 N.pl3   1  UNL1       -0.3133
      2 C         142.8296  142.2502  170.2606 C.2     1  UNL1        0.2770
      3 N         142.0448  141.5269  169.2064 N.2     1  UNL1       -0.2202
      4 C         140.7581  141.0634  169.8227 C.3     1  UNL1        0.1583
      5 C         140.7477  141.5002  171.2577 C.3     1  UNL1        0.2351
      6 O         142.0280  142.2336  171.5283 O.2     1  UNL1       -0.4478
      7 C         140.9095  140.6948  168.3766 C.ar    1  UNL1        0.0369
      8 C         142.1465  141.0921  167.6269 C.ar    1  UNL1        0.0153
      9 C         142.2979  140.7235  166.1808 C.ar    1  UNL1        0.0493
     10 C         141.2122  139.9577  165.4844 C.ar    1  UNL1        0.0177
     11 C         139.9753  139.5605  166.2341 C.ar    1  UNL1        0.0379
     12 C         139.8239  139.9291  167.6802 C.ar    1  UNL1        0.1365
     13 O         138.5869  139.5319  168.4299 O.3     1  UNL1       -0.4755
     14 C         138.4355  139.9005  169.8760 C.3     1  UNL1        0.2123
     15 C         139.5211  140.6662  170.5724 C.3     1  UNL1        0.1209
     16 C         139.5634  140.5634  170.1689 C.3     1  UNL1        0.1504
     17 O         139.5190  140.6715  170.5930 O.3     1  UNL1       -0.3532
     18 C         139.5634  140.5634  170.1689 C.3     1  UNL1        0.1504
     19 H         144.6277  142.8376  169.2035 H       1  UNL1        0.1466
     20 H         144.6159  143.3341  170.8348 H       1  UNL1        0.1466
     21 N         143.5349  141.1207  165.4311 N.pl3   1  UNL1       -0.2973
     22 H         144.3481  140.5695  165.4960 H       1  UNL1        0.1536
     23 C         143.5329  142.3576  164.5825 C.ar    1  UNL1        0.1428
     24 N         142.4581  143.3885  164.7619 N.ar    1  UNL1       -0.2282
     25 C         142.4561  144.6254  163.9134 C.ar    1  UNL1        0.1004
     26 C         143.5289  144.8314  162.8855 C.ar    1  UNL1        0.0216
     27 C         144.6036  143.8006  162.7061 C.ar    1  UNL1        0.0158
     28 C         144.6057  142.5637  163.5546 C.ar    1  UNL1        0.0893
     29 CL        145.6804  141.5328  163.3751 Cl      1  UNL1       -0.0793
@<TRIPOS>BOND
     1     1     2    1
     2     2     3    2
     3     3     4    1
     4     4     5    1
     5     5     6    1
     6     4     7    1
     7     7     8   ar
     8     8     9   ar
     9     9    21    1
    10    21    23    1
    11    23    24   ar
    12    24    25   ar
    13    25    26   ar
    14    26    27   ar
    15    27    28   ar
    16    28    29    1
    17     9    10   ar
    18    10    11   ar
    19    11    12   ar
    20    12    13    1
    21    13    14    1
    22    14    15    1
    23    15    16    1
    24    16    17    1
    25    17    18    1
    26     6     2    1
    27    12     7   ar
    28    18    15    1
    29    15     4    1
    30    28    23   ar
    31     1    19    1
    32     1    20    1
    33    21    22    1
@<TRIPOS>MOLECULE
*****
 29 33 0 0 0
SMALL
GASTEIGER

@<TRIPOS>ATOM
      1 N         140.0467  144.5044  169.9295 N.pl3   1  UNL1       -0.3133
      2 C         140.6130  143.1326  170.1466 C.2     1  UNL1        0.2770
      3 N         141.2580  142.2697  169.1027 N.2     1  UNL1       -0.2202
      4 C         141.6773  140.9864  169.7566 C.3     1  UNL1        0.1583
      5 C         141.2914  141.0562  171.2044 C.3     1  UNL1        0.2351
      6 O         140.6336  142.3826  171.4454 O.2     1  UNL1       -0.4478
      7 C         142.0019  141.0604  168.2940 C.ar    1  UNL1        0.0369
      8 C         141.6415  142.2854  167.5068 C.ar    1  UNL1        0.0153
      9 C         141.9661  142.3594  166.0442 C.ar    1  UNL1        0.0493
     10 C         142.6511  141.2084  165.3688 C.ar    1  UNL1        0.0177
     11 C         143.0114  139.9834  166.1560 C.ar    1  UNL1        0.0379
     12 C         142.6868  139.9094  167.6186 C.ar    1  UNL1        0.1365
     13 O         143.0471  138.6845  168.4058 O.3     1  UNL1       -0.4755
     14 C         142.7225  138.6105  169.8683 C.3     1  UNL1        0.2123
     15 C         142.0376  139.7615  170.5438 C.3     1  UNL1        0.1209
     16 C         142.1282  139.7821  170.1357 C.3     1  UNL1        0.1504
     17 O         142.0330  139.7604  170.5646 O.3     1  UNL1       -0.3532
     18 C         142.1282  139.7821  170.1357 C.3     1  UNL1        0.1504
     19 H         140.0803  144.9150  169.0353 H       1  UNL1        0.1466
     20 H         139.6416  144.9943  170.6812 H       1  UNL1        0.1466
     21 N         141.6058  143.5843  165.2570 N.pl3   1  UNL1       -0.2973
     22 H         142.2392  144.3357  165.1984 H       1  UNL1        0.1536
     23 C         140.2804  143.6644  164.5591 C.ar    1  UNL1        0.1428
     24 N         139.1475  142.7845  164.9977 N.ar    1  UNL1       -0.2282
     25 C         137.8222  142.8645  164.2998 C.ar    1  UNL1        0.1004
     26 C         137.6298  143.8244  163.1634 C.ar    1  UNL1        0.0216
     27 C         138.7626  144.7043  162.7249 C.ar    1  UNL1        0.0158
     28 C         140.0880  144.6243  163.4227 C.ar    1  UNL1        0.0893
     29 CL        141.2209  145.5042  162.9842 Cl      1  UNL1       -0.0793
@<TRIPOS>BOND
     1     1     2    1
     2     2     3    2
     3     3     4    1
     4     4     5    1
     5     5     6    1
     6     4     7    1
     7     7     8   ar
     8     8     9   ar
     9     9    21    1
    10    21    23    1
    11    23    24   ar
    12    24    25   ar
    13    25    26   ar
    14    26    27   ar
    15    27    28   ar
    16    28    29    1
    17     9    10   ar
    18    10    11   ar
    19    11    12   ar
    20    12    13    1
    21    13    14    1
    22    14    15    1
    23    15    16    1
    24    16    17    1
    25    17    18    1
    26     6     2    1
    27    12     7   ar
    28    18    15    1
    29    15     4    1
    30    28    23   ar
    31     1    19    1
    32     1    20    1
    33    21    22    1
@<TRIPOS>MOLECULE
*****
 29 33 0 0 0
SMALL
GASTEIGER

@<TRIPOS>ATOM
      1 N         143.2965  142.5024  167.1258 N.pl3   1  UNL1       -0.3133
      2 C         142.1696  142.0231  167.9920 C.2     1  UNL1        0.2770
      3 N         141.0830  141.0744  167.5803 N.2     1  UNL1       -0.2202
      4 C         140.1733  140.8733  168.7559 C.3     1  UNL1        0.1583
      5 C         140.6976  141.6978  169.8941 C.3     1  UNL1        0.2351
      6 O         141.9314  142.4084  169.4220 O.2     1  UNL1       -0.4478
      7 C         139.7696  140.1035  167.5334 C.ar    1  UNL1        0.0369
      8 C         140.5859  140.2061  166.2791 C.ar    1  UNL1        0.0153
      9 C         140.1822  139.4363  165.0566 C.ar    1  UNL1        0.0493
     10 C         138.9623  138.5639  165.0885 C.ar    1  UNL1        0.0177
     11 C         138.1461  138.4614  166.3428 C.ar    1  UNL1        0.0379
     12 C         138.5498  139.2312  167.5653 C.ar    1  UNL1        0.1365
     13 O         137.7336  139.1288  168.8195 O.3     1  UNL1       -0.4755
     14 C         138.1372  139.8986  170.0420 C.3     1  UNL1        0.2123
     15 C         139.3571  140.7709  170.0102 C.3     1  UNL1        0.1209
     16 C         139.2444  140.5561  169.6691 C.3     1  UNL1        0.1504
     17 O         139.3628  140.7818  170.0277 O.3     1  UNL1       -0.3532
     18 C         139.2444  140.5561  169.6691 C.3     1  UNL1        0.1504
     19 H         143.3682  142.1910  166.1946 H       1  UNL1        0.1466
     20 H         143.9643  143.1282  167.4884 H       1  UNL1        0.1466
     21 N         140.9984  139.5388  163.8023 N.pl3   1  UNL1       -0.2973
     22 H         140.5923  139.3232  162.9318 H       1  UNL1        0.1536
     23 C         142.4334  139.9696  163.8744 C.ar    1  UNL1        0.1428
     24 N         143.4975  138.9762  164.2359 N.ar    1  UNL1       -0.2282
     25 C         144.9325  139.4070  164.3080 C.ar    1  UNL1        0.1004
     26 C         145.3034  140.8313  164.0185 C.ar    1  UNL1        0.0216
     27 C         144.2393  141.8247  163.6570 C.ar    1  UNL1        0.0158
     28 C         142.8043  141.3939  163.5849 C.ar    1  UNL1        0.0893
     29 CL        141.7402  142.3874  163.2234 Cl      1  UNL1       -0.0793
@<TRIPOS>BOND
     1     1     2    1
     2     2     3    2
     3     3     4    1
     4     4     5    1
     5     5     6    1
     6     4     7    1
     7     7     8   ar
     8     8     9   ar
     9     9    21    1
    10    21    23    1
    11    23    24   ar
    12    24    25   ar
    13    25    26   ar
    14    26    27   ar
    15    27    28   ar
    16    28    29    1
    17     9    10   ar
    18    10    11   ar
    19    11    12   ar
    20    12    13    1
    21    13    14    1
    22    14    15    1
    23    15    16    1
    24    16    17    1
    25    17    18    1
    26     6     2    1
    27    12     7   ar
    28    18    15    1
    29    15     4    1
    30    28    23   ar
    31     1    19    1
    32     1    20    1
    33    21    22    1
@<TRIPOS>MOLECULE
*****
 29 33 0 0 0
SMALL
GASTEIGER

@<TRIPOS>ATOM
      1 N         142.3504  139.0584  165.1158 N.pl3   1  UNL1       -0.3133
      2 C         142.8664  140.4433  164.8597 C.2     1  UNL1        0.2770
      3 N         142.0304  141.6723  164.6575 N.2     1  UNL1       -0.2202
      4 C         142.9563  142.8310  164.4335 C.3     1  UNL1        0.1583
      5 C         144.3645  142.3182  164.4973 C.3     1  UNL1        0.2351
      6 O         144.3089  140.8424  164.7606 O.2     1  UNL1       -0.4478
      7 C         141.5019  143.1963  164.3970 C.ar    1  UNL1        0.0369
      8 C         140.4578  142.1396  164.6051 C.ar    1  UNL1        0.0153
      9 C         139.0034  142.5049  164.5685 C.ar    1  UNL1        0.0493
     10 C         138.5931  143.9269  164.3238 C.ar    1  UNL1        0.0177
     11 C         139.6373  144.9835  164.1157 C.ar    1  UNL1        0.0379
     12 C         141.0917  144.6182  164.1523 C.ar    1  UNL1        0.1365
     13 O         142.1358  145.6748  163.9441 O.3     1  UNL1       -0.4755
     14 C         143.5902  145.3095  163.9807 C.3     1  UNL1        0.2123
     15 C         144.0004  143.8876  164.2254 C.3     1  UNL1        0.1209
     16 C         143.5946  143.9895  164.2152 C.3     1  UNL1        0.1504
     17 O         144.0212  143.8824  164.2260 O.3     1  UNL1       -0.3532
     18 C         143.5946  143.9895  164.2152 C.3     1  UNL1        0.1504
     19 H         141.3807  138.8954  165.1637 H       1  UNL1        0.1466
     20 H         142.9815  138.3124  165.2361 H       1  UNL1        0.1466
     21 N         137.9592  141.4483  164.7766 N.pl3   1  UNL1       -0.2973
     22 H         137.0855  141.6887  165.1613 H       1  UNL1        0.1536
     23 C         138.2464  140.0253  164.3986 C.ar    1  UNL1        0.1428
     24 N         138.1644  139.5996  162.9627 N.ar    1  UNL1       -0.2282
     25 C         138.4515  138.1767  162.5847 C.ar    1  UNL1        0.1004
     26 C         138.8206  137.1796  163.6427 C.ar    1  UNL1        0.0216
     27 C         138.9026  137.6053  165.0786 C.ar    1  UNL1        0.0158
     28 C         138.6155  139.0282  165.4566 C.ar    1  UNL1        0.0893
     29 CL        138.6975  139.4539  166.8926 Cl      1  UNL1       -0.0793
@<TRIPOS>BOND
     1     1     2    1
     2     2     3    2
     3     3     4    1
     4     4     5    1
     5     5     6    1
     6     4     7    1
     7     7     8   ar
     8     8     9   ar
     9     9    21    1
    10    21    23    1
    11    23    24   ar
    12    24    25   ar
    13    25    26   ar
    14    26    27   ar
    15    27    28   ar
    16    28    29    1
    17     9    10   ar
    18    10    11   ar
    19    11    12   ar
    20    12    13    1
    21    13    14    1
    22    14    15    1
    23    15    16    1
    24    16    17    1
    25    17    18    1
    26     6     2    1
    27    12     7   ar
    28    18    15    1
    29    15     4    1
    30    28    23   ar
    31     1    19    1
    32     1    20    1
    33    21    22    1
@<TRIPOS>MOLECULE
*****
 29 33 0 0 0
SMALL
GASTEIGER

@<TRIPOS>ATOM
      1 N         141.3452  140.8375  162.1752 N.pl3   1  UNL1       -0.3133
      2 C         140.4015  140.2656  163.1911 C.2     1  UNL1        0.2770
      3 N         140.4962  140.4386  164.6781 N.2     1  UNL1       -0.2202
      4 C         139.3506  139.7002  165.3047 C.3     1  UNL1        0.1583
      5 C         138.5480  139.0708  164.2048 C.3     1  UNL1        0.2351
      6 O         139.1975  139.4202  162.8986 O.2     1  UNL1       -0.4478
      7 C         140.2475  140.3859  166.2922 C.ar    1  UNL1        0.0369
      8 C         141.4362  141.1644  165.8113 C.ar    1  UNL1        0.0153
      9 C         142.3331  141.8502  166.7989 C.ar    1  UNL1        0.0493
     10 C         142.0414  141.7574  168.2674 C.ar    1  UNL1        0.0177
     11 C         140.8528  140.9789  168.7482 C.ar    1  UNL1        0.0379
     12 C         139.9559  140.2932  167.7607 C.ar    1  UNL1        0.1365
     13 O         138.7673  139.5147  168.2415 O.3     1  UNL1       -0.4755
     14 C         137.8704  138.8290  167.2539 C.3     1  UNL1        0.2123
     15 C         138.1621  138.9217  165.7855 C.3     1  UNL1        0.1209
     16 C         138.4123  139.1131  166.0610 C.3     1  UNL1        0.1504
     17 O         138.1493  138.9120  165.7714 O.3     1  UNL1       -0.3532
     18 C         138.4123  139.1131  166.0610 C.3     1  UNL1        0.1504
     19 H         142.1111  141.3829  162.4669 H       1  UNL1        0.1466
     20 H         141.1987  140.6674  161.2166 H       1  UNL1        0.1466
     21 N         143.5217  142.6286  166.3181 N.pl3   1  UNL1       -0.2973
     22 H         143.9599  143.2769  166.9155 H       1  UNL1        0.1536
     23 C         144.0425  142.4194  164.9270 C.ar    1  UNL1        0.1428
     24 N         144.6369  141.0978  164.5397 N.ar    1  UNL1       -0.2282
     25 C         145.1577  140.8885  163.1487 C.ar    1  UNL1        0.1004
     26 C         145.0842  142.0008  162.1451 C.ar    1  UNL1        0.0216
     27 C         144.4897  143.3224  162.5324 C.ar    1  UNL1        0.0158
     28 C         143.9689  143.5317  163.9234 C.ar    1  UNL1        0.0893
     29 CL        143.3745  144.8533  164.3108 Cl      1  UNL1       -0.0793
@<TRIPOS>BOND
     1     1     2    1
     2     2     3    2
     3     3     4    1
     4     4     5    1
     5     5     6    1
     6     4     7    1
     7     7     8   ar
     8     8     9   ar
     9     9    21    1
    10    21    23    1
    11    23    24   ar
    12    24    25   ar
    13    25    26   ar
    14    26    27   ar
    15    27    28   ar
    16    28    29    1
    17     9    10   ar
    18    10    11   ar
    19    11    12   ar
    20    12    13    1
    21    13    14    1
    22    14    15    1
    23    15    16    1
    24    16    17    1
    25    17    18    1
    26     6     2    1
    27    12     7   ar
    28    18    15    1
    29    15     4    1
    30    28    23   ar
    31     1    19    1
    32     1    20    1
    33    21    22    1
@<TRIPOS>MOLECULE
*****
 29 33 0 0 0
SMALL
GASTEIGER

@<TRIPOS>ATOM
      1 N         143.6915  142.2232  165.6331 N.pl3   1  UNL1       -0.3133
      2 C         142.9638  143.2231  164.7844 C.2     1  UNL1        0.2770
      3 N         141.5207  143.1532  164.3812 N.2     1  UNL1       -0.2202
      4 C         141.2164  144.3555  163.5373 C.3     1  UNL1        0.1583
      5 C         142.4715  145.1684  163.4190 C.3     1  UNL1        0.2351
      6 O         143.5514  144.4685  164.1897 O.2     1  UNL1       -0.4478
      7 C         140.0442  143.4425  163.7437 C.ar    1  UNL1        0.0369
      8 C         140.1986  142.1983  164.5673 C.ar    1  UNL1        0.0153
      9 C         139.0264  141.2853  164.7736 C.ar    1  UNL1        0.0493
     10 C         137.7000  141.6166  164.1564 C.ar    1  UNL1        0.0177
     11 C         137.5457  142.8607  163.3329 C.ar    1  UNL1        0.0379
     12 C         138.7178  143.7737  163.1265 C.ar    1  UNL1        0.1365
     13 O         138.5636  145.0178  162.3030 O.3     1  UNL1       -0.4755
     14 C         139.7357  145.9308  162.0966 C.3     1  UNL1        0.2123
     15 C         141.0621  145.5996  162.7137 C.3     1  UNL1        0.1209
     16 C         140.7351  145.3449  162.7713 C.3     1  UNL1        0.1504
     17 O         141.0788  145.6126  162.7108 O.3     1  UNL1       -0.3532
     18 C         140.7351  145.3449  162.7713 C.3     1  UNL1        0.1504
     19 H         143.2169  141.4330  165.9789 H       1  UNL1        0.1466
     20 H         144.6436  142.3571  165.8445 H       1  UNL1        0.1466
     21 N         139.1807  140.0412  165.5972 N.pl3   1  UNL1       -0.2973
     22 H         138.3865  139.5187  165.8531 H       1  UNL1        0.1536
     23 C         140.5450  139.5931  166.0308 C.ar    1  UNL1        0.1428
     24 N         141.3925  138.7692  165.1073 N.ar    1  UNL1       -0.2282
     25 C         142.7568  138.3211  165.5409 C.ar    1  UNL1        0.1004
     26 C         143.2735  138.6970  166.8979 C.ar    1  UNL1        0.0216
     27 C         142.4260  139.5210  167.8214 C.ar    1  UNL1        0.0158
     28 C         141.0618  139.9691  167.3878 C.ar    1  UNL1        0.0893
     29 CL        140.2143  140.7931  168.3113 Cl      1  UNL1       -0.0793
@<TRIPOS>BOND
     1     1     2    1
     2     2     3    2
     3     3     4    1
     4     4     5    1
     5     5     6    1
     6     4     7    1
     7     7     8   ar
     8     8     9   ar
     9     9    21    1
    10    21    23    1
    11    23    24   ar
    12    24    25   ar
    13    25    26   ar
    14    26    27   ar
    15    27    28   ar
    16    28    29    1
    17     9    10   ar
    18    10    11   ar
    19    11    12   ar
    20    12    13    1
    21    13    14    1
    22    14    15    1
    23    15    16    1
    24    16    17    1
    25    17    18    1
    26     6     2    1
    27    12     7   ar
    28    18    15    1
    29    15     4    1
    30    28    23   ar
    31     1    19    1
    32     1    20    1
    33    21    22    1
@<TRIPOS>MOLECULE
*****
 29 33 0 0 0
SMALL
GASTEIGER

@<TRIPOS>ATOM
      1 N         138.0166  140.5255  165.1257 N.pl3   1  UNL1       -0.3133
      2 C         138.1957  141.7765  164.3178 C.2     1  UNL1        0.2770
      3 N         139.4496  142.5946  164.2257 N.2     1  UNL1       -0.2202
      4 C         139.1813  143.7528  163.3110 C.3     1  UNL1        0.1583
      5 C         137.7615  143.6505  162.8377 C.3     1  UNL1        0.2351
      6 O         137.1524  142.4290  163.4600 O.2     1  UNL1       -0.4478
      7 C         140.5745  143.7239  163.8661 C.ar    1  UNL1        0.0369
      8 C         140.9883  142.6226  164.7967 C.ar    1  UNL1        0.0153
      9 C         142.3815  142.5937  165.3518 C.ar    1  UNL1        0.0493
     10 C         143.3609  143.6660  164.9762 C.ar    1  UNL1        0.0177
     11 C         142.9471  144.7672  164.0456 C.ar    1  UNL1        0.0379
     12 C         141.5539  144.7961  163.4905 C.ar    1  UNL1        0.1365
     13 O         141.1400  145.8973  162.5599 O.3     1  UNL1       -0.4755
     14 C         139.7468  145.9263  162.0048 C.3     1  UNL1        0.2123
     15 C         138.7674  144.8540  162.3803 C.3     1  UNL1        0.1209
     16 C         139.1561  144.8459  162.5352 C.3     1  UNL1        0.1504
     17 O         138.7476  144.8544  162.3724 O.3     1  UNL1       -0.3532
     18 C         139.1561  144.8459  162.5352 C.3     1  UNL1        0.1504
     19 H         138.7648  140.1732  165.6599 H       1  UNL1        0.1466
     20 H         137.1508  140.0568  165.1219 H       1  UNL1        0.1466
     21 N         142.7953  141.4925  166.2824 N.pl3   1  UNL1       -0.2973
     22 H         143.6438  141.0157  166.1343 H       1  UNL1        0.1536
     23 C         141.9164  141.1178  167.4388 C.ar    1  UNL1        0.1428
     24 N         140.6712  140.3147  167.2051 N.ar    1  UNL1       -0.2282
     25 C         139.7923  139.9401  168.3614 C.ar    1  UNL1        0.1004
     26 C         140.1585  140.3685  169.7514 C.ar    1  UNL1        0.0216
     27 C         141.4037  141.1716  169.9852 C.ar    1  UNL1        0.0158
     28 C         142.2826  141.5462  168.8289 C.ar    1  UNL1        0.0893
     29 CL        143.5278  142.3493  169.0626 Cl      1  UNL1       -0.0793
@<TRIPOS>BOND
     1     1     2    1
     2     2     3    2
     3     3     4    1
     4     4     5    1
     5     5     6    1
     6     4     7    1
     7     7     8   ar
     8     8     9   ar
     9     9    21    1
    10    21    23    1
    11    23    24   ar
    12    24    25   ar
    13    25    26   ar
    14    26    27   ar
    15    27    28   ar
    16    28    29    1
    17     9    10   ar
    18    10    11   ar
    19    11    12   ar
    20    12    13    1
    21    13    14    1
    22    14    15    1
    23    15    16    1
    24    16    17    1
    25    17    18    1
    26     6     2    1
    27    12     7   ar
    28    18    15    1
    29    15     4    1
    30    28    23   ar
    31     1    19    1
    32     1    20    1
    33    21    22    1
@<TRIPOS>MOLECULE
*****
 29 33 0 0 0
SMALL
GASTEIGER

@<TRIPOS>ATOM
      1 N         139.6170  143.9688  165.5082 N.pl3   1  UNL1       -0.3133
      2 C         139.0018  143.1725  164.3959 C.2     1  UNL1        0.2770
      3 N         139.1337  141.6920  164.1939 N.2     1  UNL1       -0.2202
      4 C         138.3600  141.3212  162.9634 C.3     1  UNL1        0.1583
      5 C         137.7500  142.5726  162.4049 C.3     1  UNL1        0.2351
      6 O         138.1467  143.7168  163.2903 O.2     1  UNL1       -0.4478
      7 C         139.0310  140.1599  163.6350 C.ar    1  UNL1        0.0369
      8 C         139.8412  140.3785  164.8784 C.ar    1  UNL1        0.0153
      9 C         140.5122  139.2172  165.5501 C.ar    1  UNL1        0.0493
     10 C         140.3730  137.8374  164.9784 C.ar    1  UNL1        0.0177
     11 C         139.5629  137.6189  163.7351 C.ar    1  UNL1        0.0379
     12 C         138.8919  138.7802  163.0634 C.ar    1  UNL1        0.1365
     13 O         138.0817  138.5617  161.8201 O.3     1  UNL1       -0.4755
     14 C         137.4107  139.7230  161.1484 C.3     1  UNL1        0.2123
     15 C         137.5499  141.1028  161.7201 C.3     1  UNL1        0.1209
     16 C         137.7371  140.7788  161.9075 C.3     1  UNL1        0.1504
     17 O         137.5403  141.1193  161.7105 O.3     1  UNL1       -0.3532
     18 C         137.7371  140.7788  161.9075 C.3     1  UNL1        0.1504
     19 H         140.1657  143.5188  166.1906 H       1  UNL1        0.1466
     20 H         139.4722  144.9414  165.5558 H       1  UNL1        0.1466
     21 N         141.3224  139.4357  166.7934 N.pl3   1  UNL1       -0.2973
     22 H         142.1971  138.9953  166.8947 H       1  UNL1        0.1536
     23 C         140.7999  140.3251  167.8825 C.ar    1  UNL1        0.1428
     24 N         139.7530  139.8163  168.8287 N.ar    1  UNL1       -0.2282
     25 C         139.2304  140.7056  169.9177 C.ar    1  UNL1        0.1004
     26 C         139.7548  142.1037  170.0605 C.ar    1  UNL1        0.0216
     27 C         140.8017  142.6124  169.1144 C.ar    1  UNL1        0.0158
     28 C         141.3242  141.7231  168.0253 C.ar    1  UNL1        0.0893
     29 CL        142.3711  142.2319  167.0792 Cl      1  UNL1       -0.0793
@<TRIPOS>BOND
     1     1     2    1
     2     2     3    2
     3     3     4    1
     4     4     5    1
     5     5     6    1
     6     4     7    1
     7     7     8   ar
     8     8     9   ar
     9     9    21    1
    10    21    23    1
    11    23    24   ar
    12    24    25   ar
    13    25    26   ar
    14    26    27   ar
    15    27    28   ar
    16    28    29    1
    17     9    10   ar
    18    10    11   ar
    19    11    12   ar
    20    12    13    1
    21    13    14    1
    22    14    15    1
    23    15    16    1
    24    16    17    1
    25    17    18    1
    26     6     2    1
    27    12     7   ar
    28    18    15    1
    29    15     4    1
    30    28    23   ar
    31     1    19    1
    32     1    20    1
    33    21    22    1
