@<TRIPOS>MOLECULE
*****
 36 39 0 0 0
SMALL
GASTEIGER

@<TRIPOS>ATOM
      1 C         143.4824  141.9923  158.7669 C.ar    1  UNL1        0.1194
      2 C         143.5216  140.8497  159.7379 C.ar    1  UNL1        0.1452
      3 N         144.0185  139.5056  159.2947 N.pl3   1  UNL1       -0.3415
      4 N         143.0640  141.0512  161.1521 N.ar    1  UNL1       -0.1940
      5 C         142.5672  142.3953  161.5954 C.ar    1  UNL1        0.2554
      6 N         142.5279  143.5379  160.6243 N.ar    1  UNL1       -0.1940
      7 C         142.9855  143.3364  159.2101 C.ar    1  UNL1        0.1452
      8 N         142.9462  144.4790  158.2391 N.pl3   1  UNL1       -0.3415
      9 H         144.3188  139.3733  158.3666 H       1  UNL1        0.1438
     10 H         144.0443  138.7556  159.9321 H       1  UNL1        0.1438
     11 H         142.6201  145.3612  158.5301 H       1  UNL1        0.1438
     12 H         143.2465  144.3468  157.3109 H       1  UNL1        0.1438
     13 N         142.1096  142.5968  163.0096 N.ar    1  UNL1       -0.1967
     14 N         142.8509  142.1775  164.2444 N.ar    1  UNL1       -0.1666
     15 C         142.0297  142.5746  165.4352 C.ar    1  UNL1        0.0849
     16 C         140.7810  143.2393  164.9364 C.ar    1  UNL1        0.0334
     17 C         139.6053  143.8338  165.6536 C.ar    1  UNL1        0.0027
     18 C         138.4790  144.4420  164.8716 C.ar    1  UNL1        0.0001
     19 C         138.5284  144.4557  163.3725 C.ar    1  UNL1        0.0015
     20 C         139.7040  143.8612  162.6553 C.ar    1  UNL1        0.0193
     21 C         140.8303  143.2530  163.4373 C.ar    1  UNL1        0.0870
     22 C         142.3935  142.3470  166.8725 C.3     1  UNL1        0.0762
     23 C         141.3525  141.8748  167.8439 C.ar    1  UNL1        0.0135
     24 C         140.9205  142.7646  168.9716 C.ar    1  UNL1        0.0280
     25 C         139.8796  142.2925  169.9430 C.ar    1  UNL1        0.1400
     26 F         139.4477  143.1822  171.0707 F       1  UNL1       -0.2042
     27 C         139.2707  140.9306  169.7867 C.ar    1  UNL1        0.0319
     28 C         139.7027  140.0409  168.6590 C.ar    1  UNL1        0.0316
     29 C         140.7436  140.5129  167.6876 C.ar    1  UNL1        0.1366
     30 F         141.1756  139.6232  166.5599 F       1  UNL1       -0.2045
     31 C         145.3288  142.1892  156.9499 C.2     1  UNL1        0.4090
     32 O         146.2601  142.7892  157.9612 O.2     1  UNL1       -0.2258
     33 N         143.9400  141.7907  157.3527 N.am    1  UNL1       -0.2181
     34 C         143.0087  141.1908  156.3414 C.3     1  UNL1        0.1237
     35 C         147.1760  141.4944  155.2601 C.3     1  UNL1        0.2574
     36 O         145.7865  141.9877  155.5357 O.3     1  UNL1       -0.4302
@<TRIPOS>BOND
     1    35    36    1
     2    36    31    1
     3    31    32    2
     4    31    33   am
     5    33    34    1
     6    33     1    1
     7     1     2   ar
     8     2     3    1
     9     2     4   ar
    10     4     5   ar
    11     5    13    1
    12    13    14   ar
    13    14    15   ar
    14    15    22    1
    15    22    23    1
    16    23    24   ar
    17    24    25   ar
    18    25    26    1
    19    25    27   ar
    20    27    28   ar
    21    28    29   ar
    22    29    30    1
    23    15    16   ar
    24    16    17   ar
    25    17    18   ar
    26    18    19   ar
    27    19    20   ar
    28    20    21   ar
    29     5     6   ar
    30     6     7   ar
    31     7     8    1
    32     7     1   ar
    33    21    13   ar
    34    29    23   ar
    35    21    16   ar
    36     3     9    1
    37     3    10    1
    38     8    11    1
    39     8    12    1
@<TRIPOS>MOLECULE
*****
 36 39 0 0 0
SMALL
GASTEIGER

@<TRIPOS>ATOM
      1 C         142.3478  139.1663  160.1753 C.ar    1  UNL1        0.1194
      2 C         140.9812  139.7767  160.2742 C.ar    1  UNL1        0.1452
      3 N         140.2020  140.0769  159.0282 N.pl3   1  UNL1       -0.3415
      4 N         140.3939  140.0868  161.6192 N.ar    1  UNL1       -0.1940
      5 C         141.1731  139.7867  162.8652 C.ar    1  UNL1        0.2554
      6 N         142.5398  139.1762  162.7662 N.ar    1  UNL1       -0.1940
      7 C         143.1271  138.8661  161.4213 C.ar    1  UNL1        0.1452
      8 N         144.4937  138.2557  161.3225 N.pl3   1  UNL1       -0.3415
      9 H         140.5874  139.8733  158.1455 H       1  UNL1        0.1438
     10 H         139.3050  140.4775  159.0931 H       1  UNL1        0.1438
     11 H         145.0052  138.0587  162.1403 H       1  UNL1        0.1438
     12 H         144.8793  138.0521  160.4398 H       1  UNL1        0.1438
     13 N         140.5858  140.0968  164.2101 N.ar    1  UNL1       -0.1967
     14 N         140.8350  141.3370  165.0162 N.ar    1  UNL1       -0.1666
     15 C         140.0493  141.2278  166.2894 C.ar    1  UNL1        0.0849
     16 C         139.3146  139.9202  166.2701 C.ar    1  UNL1        0.0334
     17 C         138.3866  139.2758  167.2566 C.ar    1  UNL1        0.0027
     18 C         137.7900  137.9323  166.9581 C.ar    1  UNL1        0.0001
     19 C         138.1216  137.2333  165.6730 C.ar    1  UNL1        0.0015
     20 C         139.0497  137.8777  164.6864 C.ar    1  UNL1        0.0193
     21 C         139.6462  139.2212  164.9850 C.ar    1  UNL1        0.0870
     22 C         140.0060  142.2473  167.3888 C.3     1  UNL1        0.0762
     23 C         140.8402  142.0574  168.6210 C.ar    1  UNL1        0.0135
     24 C         142.3022  142.3916  168.5958 C.ar    1  UNL1        0.0280
     25 C         143.1364  142.2017  169.8279 C.ar    1  UNL1        0.1400
     26 F         144.5985  142.5359  169.8027 F       1  UNL1       -0.2042
     27 C         142.5084  141.6777  171.0853 C.ar    1  UNL1        0.0319
     28 C         141.0463  141.3436  171.1105 C.ar    1  UNL1        0.0316
     29 C         140.2122  141.5334  169.8784 C.ar    1  UNL1        0.1366
     30 F         138.7501  141.1993  169.9037 F       1  UNL1       -0.2045
     31 C         143.8027  139.8663  158.1398 C.2     1  UNL1        0.4090
     32 O         144.0829  141.1867  158.7942 O.2     1  UNL1       -0.2258
     33 N         142.9352  138.8561  158.8303 N.am    1  UNL1       -0.2181
     34 C         142.6550  137.5358  158.1760 C.3     1  UNL1        0.1237
     35 C         144.6228  140.6595  155.8056 C.3     1  UNL1        0.2574
     36 O         144.3901  139.5563  156.7949 O.3     1  UNL1       -0.4302
@<TRIPOS>BOND
     1    35    36    1
     2    36    31    1
     3    31    32    2
     4    31    33   am
     5    33    34    1
     6    33     1    1
     7     1     2   ar
     8     2     3    1
     9     2     4   ar
    10     4     5   ar
    11     5    13    1
    12    13    14   ar
    13    14    15   ar
    14    15    22    1
    15    22    23    1
    16    23    24   ar
    17    24    25   ar
    18    25    26    1
    19    25    27   ar
    20    27    28   ar
    21    28    29   ar
    22    29    30    1
    23    15    16   ar
    24    16    17   ar
    25    17    18   ar
    26    18    19   ar
    27    19    20   ar
    28    20    21   ar
    29     5     6   ar
    30     6     7   ar
    31     7     8    1
    32     7     1   ar
    33    21    13   ar
    34    29    23   ar
    35    21    16   ar
    36     3     9    1
    37     3    10    1
    38     8    11    1
    39     8    12    1
@<TRIPOS>MOLECULE
*****
 36 39 0 0 0
SMALL
GASTEIGER

@<TRIPOS>ATOM
      1 C         140.6178  144.7157  157.6457 C.ar    1  UNL1        0.1194
      2 C         139.7034  143.7550  158.3463 C.ar    1  UNL1        0.1452
      3 N         138.6000  143.0801  157.5867 N.pl3   1  UNL1       -0.3415
      4 N         139.8923  143.4692  159.8067 N.ar    1  UNL1       -0.1940
      5 C         140.9956  144.1441  160.5664 C.ar    1  UNL1        0.2554
      6 N         141.9101  145.1048  159.8657 N.ar    1  UNL1       -0.1940
      7 C         141.7211  145.3906  158.4053 C.ar    1  UNL1        0.1452
      8 N         142.6356  146.3513  157.7047 N.pl3   1  UNL1       -0.3415
      9 H         138.4760  143.2677  156.6282 H       1  UNL1        0.1438
     10 H         137.9999  142.4496  158.0465 H       1  UNL1        0.1438
     11 H         143.3597  146.7942  158.2034 H       1  UNL1        0.1438
     12 H         142.5116  146.5389  156.7463 H       1  UNL1        0.1438
     13 N         141.1846  143.8583  162.0268 N.ar    1  UNL1       -0.1967
     14 N         142.4613  143.4212  162.6816 N.ar    1  UNL1       -0.1666
     15 C         142.1957  143.2522  164.1482 C.ar    1  UNL1        0.0849
     16 C         140.7549  143.5849  164.3997 C.ar    1  UNL1        0.0334
     17 C         139.9312  143.5951  165.6533 C.ar    1  UNL1        0.0027
     18 C         138.4826  143.9799  165.5956 C.ar    1  UNL1        0.0001
     19 C         137.8576  144.3544  164.2845 C.ar    1  UNL1        0.0015
     20 C         138.6813  144.3442  163.0310 C.ar    1  UNL1        0.0193
     21 C         140.1299  143.9594  163.0886 C.ar    1  UNL1        0.0870
     22 C         143.1955  142.8255  165.1819 C.3     1  UNL1        0.0762
     23 C         143.2367  141.3980  165.6411 C.ar    1  UNL1        0.0135
     24 C         142.6683  141.0234  166.9777 C.ar    1  UNL1        0.0280
     25 C         142.7095  139.5961  167.4369 C.ar    1  UNL1        0.1400
     26 F         142.1410  139.2215  168.7735 F       1  UNL1       -0.2042
     27 C         143.3192  138.5433  166.5595 C.ar    1  UNL1        0.0319
     28 C         143.8877  138.9179  165.2229 C.ar    1  UNL1        0.0316
     29 C         143.8465  140.3452  164.7636 C.ar    1  UNL1        0.1366
     30 F         144.4149  140.7198  163.4270 F       1  UNL1       -0.2045
     31 C         139.7427  146.2625  155.7506 C.2     1  UNL1        0.4090
     32 O         139.2456  147.2378  156.7761 O.2     1  UNL1       -0.2258
     33 N         140.4288  145.0015  156.1853 N.am    1  UNL1       -0.2181
     34 C         140.9259  144.0262  155.1598 C.3     1  UNL1        0.1237
     35 C         140.3108  147.6688  153.6411 C.3     1  UNL1        0.2574
     36 O         139.5537  146.5484  154.2902 O.3     1  UNL1       -0.4302
@<TRIPOS>BOND
     1    35    36    1
     2    36    31    1
     3    31    32    2
     4    31    33   am
     5    33    34    1
     6    33     1    1
     7     1     2   ar
     8     2     3    1
     9     2     4   ar
    10     4     5   ar
    11     5    13    1
    12    13    14   ar
    13    14    15   ar
    14    15    22    1
    15    22    23    1
    16    23    24   ar
    17    24    25   ar
    18    25    26    1
    19    25    27   ar
    20    27    28   ar
    21    28    29   ar
    22    29    30    1
    23    15    16   ar
    24    16    17   ar
    25    17    18   ar
    26    18    19   ar
    27    19    20   ar
    28    20    21   ar
    29     5     6   ar
    30     6     7   ar
    31     7     8    1
    32     7     1   ar
    33    21    13   ar
    34    29    23   ar
    35    21    16   ar
    36     3     9    1
    37     3    10    1
    38     8    11    1
    39     8    12    1
@<TRIPOS>MOLECULE
*****
 36 39 0 0 0
SMALL
GASTEIGER

@<TRIPOS>ATOM
      1 C         143.4776  142.0490  158.6189 C.ar    1  UNL1        0.1194
      2 C         143.4724  140.8999  159.5829 C.ar    1  UNL1        0.1452
      3 N         143.9435  139.5466  159.1392 N.pl3   1  UNL1       -0.3415
      4 N         142.9962  141.1039  160.9906 N.ar    1  UNL1       -0.1940
      5 C         142.5251  142.4571  161.4342 C.ar    1  UNL1        0.2554
      6 N         142.5303  143.6063  160.4702 N.ar    1  UNL1       -0.1940
      7 C         143.0065  143.4023  159.0625 C.ar    1  UNL1        0.1452
      8 N         143.0117  144.5515  158.0986 N.pl3   1  UNL1       -0.3415
      9 H         144.2561  139.4127  158.2153 H       1  UNL1        0.1438
     10 H         143.9401  138.7924  159.7720 H       1  UNL1        0.1438
     11 H         142.7025  145.4396  158.3898 H       1  UNL1        0.1438
     12 H         143.3242  144.4176  157.1746 H       1  UNL1        0.1438
     13 N         142.0488  142.6611  162.8419 N.ar    1  UNL1       -0.1967
     14 N         142.7567  142.2125  164.0860 N.ar    1  UNL1       -0.1666
     15 C         141.9264  142.6237  165.2655 C.ar    1  UNL1        0.0849
     16 C         140.7054  143.3266  164.7506 C.ar    1  UNL1        0.0334
     17 C         139.5345  143.9485  165.4520 C.ar    1  UNL1        0.0027
     18 C         138.4393  144.5936  164.6556 C.ar    1  UNL1        0.0001
     19 C         138.5149  144.6167  163.1577 C.ar    1  UNL1        0.0015
     20 C         139.6858  143.9947  162.4562 C.ar    1  UNL1        0.0193
     21 C         140.7811  143.3497  163.2526 C.ar    1  UNL1        0.0870
     22 C         142.2587  142.3757  166.7071 C.3     1  UNL1        0.0762
     23 C         141.2474  141.7339  167.6102 C.ar    1  UNL1        0.0135
     24 C         140.3913  140.6127  167.1005 C.ar    1  UNL1        0.0280
     25 C         139.3801  139.9708  168.0035 C.ar    1  UNL1        0.1400
     26 F         138.5240  138.8496  167.4937 F       1  UNL1       -0.2042
     27 C         139.2251  140.4502  169.4163 C.ar    1  UNL1        0.0319
     28 C         140.0812  141.5715  169.9261 C.ar    1  UNL1        0.0316
     29 C         141.0924  142.2133  169.0231 C.ar    1  UNL1        0.1366
     30 F         141.9485  143.3345  169.5328 F       1  UNL1       -0.2045
     31 C         145.3734  142.1636  156.8462 C.2     1  UNL1        0.4090
     32 O         146.3167  142.6863  157.8888 O.2     1  UNL1       -0.2258
     33 N         143.9539  141.8450  157.2112 N.am    1  UNL1       -0.2181
     34 C         143.0106  141.3223  156.1686 C.3     1  UNL1        0.1237
     35 C         146.3910  143.1182  154.6544 C.3     1  UNL1        0.2574
     36 O         145.8498  141.9596  155.4385 O.3     1  UNL1       -0.4302
@<TRIPOS>BOND
     1    35    36    1
     2    36    31    1
     3    31    32    2
     4    31    33   am
     5    33    34    1
     6    33     1    1
     7     1     2   ar
     8     2     3    1
     9     2     4   ar
    10     4     5   ar
    11     5    13    1
    12    13    14   ar
    13    14    15   ar
    14    15    22    1
    15    22    23    1
    16    23    24   ar
    17    24    25   ar
    18    25    26    1
    19    25    27   ar
    20    27    28   ar
    21    28    29   ar
    22    29    30    1
    23    15    16   ar
    24    16    17   ar
    25    17    18   ar
    26    18    19   ar
    27    19    20   ar
    28    20    21   ar
    29     5     6   ar
    30     6     7   ar
    31     7     8    1
    32     7     1   ar
    33    21    13   ar
    34    29    23   ar
    35    21    16   ar
    36     3     9    1
    37     3    10    1
    38     8    11    1
    39     8    12    1
@<TRIPOS>MOLECULE
*****
 36 39 0 0 0
SMALL
GASTEIGER

@<TRIPOS>ATOM
      1 C         140.5582  144.8492  157.5217 C.ar    1  UNL1        0.1194
      2 C         141.6742  145.4637  158.3134 C.ar    1  UNL1        0.1452
      3 N         142.6187  146.4259  157.6561 N.pl3   1  UNL1       -0.3415
      4 N         141.8457  145.1160  159.7625 N.ar    1  UNL1       -0.1940
      5 C         140.9013  144.1539  160.4198 C.ar    1  UNL1        0.2554
      6 N         139.7852  143.5393  159.6281 N.ar    1  UNL1       -0.1940
      7 C         139.6137  143.8870  158.1791 C.ar    1  UNL1        0.1452
      8 N         138.4976  143.2724  157.3874 N.pl3   1  UNL1       -0.3415
      9 H         142.5061  146.6541  156.7050 H       1  UNL1        0.1438
     10 H         143.3511  146.8293  158.1757 H       1  UNL1        0.1438
     11 H         137.8778  142.6408  157.8189 H       1  UNL1        0.1438
     12 H         138.3850  143.5005  156.4364 H       1  UNL1        0.1438
     13 N         141.0729  143.8062  161.8689 N.ar    1  UNL1       -0.1967
     14 N         139.9910  143.7987  162.9078 N.ar    1  UNL1       -0.1666
     15 C         140.6059  143.3928  164.2144 C.ar    1  UNL1        0.0849
     16 C         142.0679  143.1495  163.9829 C.ar    1  UNL1        0.0334
     17 C         143.1736  142.7284  164.9049 C.ar    1  UNL1        0.0027
     18 C         144.5678  142.5627  164.3772 C.ar    1  UNL1        0.0001
     19 C         144.8564  142.8182  162.9276 C.ar    1  UNL1        0.0015
     20 C         143.7507  143.2394  162.0056 C.ar    1  UNL1        0.0193
     21 C         142.3565  143.4050  162.5333 C.ar    1  UNL1        0.0870
     22 C         139.8855  143.2545  165.5227 C.3     1  UNL1        0.0762
     23 C         139.5163  141.8940  166.0356 C.ar    1  UNL1        0.0135
     24 C         140.0925  141.3982  167.3287 C.ar    1  UNL1        0.0280
     25 C         139.7235  140.0378  167.8416 C.ar    1  UNL1        0.1400
     26 F         140.2997  139.5420  169.1347 F       1  UNL1       -0.2042
     27 C         138.7782  139.1732  167.0612 C.ar    1  UNL1        0.0319
     28 C         138.2020  139.6690  165.7681 C.ar    1  UNL1        0.0316
     29 C         138.5711  141.0294  165.2553 C.ar    1  UNL1        0.1366
     30 F         137.9949  141.5252  163.9621 F       1  UNL1       -0.2045
     31 C         139.6897  146.4668  155.6836 C.2     1  UNL1        0.4090
     32 O         139.1644  147.3891  156.7435 O.2     1  UNL1       -0.2258
     33 N         140.3866  145.1968  156.0727 N.am    1  UNL1       -0.2181
     34 C         140.9119  144.2745  155.0128 C.3     1  UNL1        0.1237
     35 C         140.3305  147.9196  153.6271 C.3     1  UNL1        0.2574
     36 O         139.5181  146.8146  154.2346 O.3     1  UNL1       -0.4302
@<TRIPOS>BOND
     1    35    36    1
     2    36    31    1
     3    31    32    2
     4    31    33   am
     5    33    34    1
     6    33     1    1
     7     1     2   ar
     8     2     3    1
     9     2     4   ar
    10     4     5   ar
    11     5    13    1
    12    13    14   ar
    13    14    15   ar
    14    15    22    1
    15    22    23    1
    16    23    24   ar
    17    24    25   ar
    18    25    26    1
    19    25    27   ar
    20    27    28   ar
    21    28    29   ar
    22    29    30    1
    23    15    16   ar
    24    16    17   ar
    25    17    18   ar
    26    18    19   ar
    27    19    20   ar
    28    20    21   ar
    29     5     6   ar
    30     6     7   ar
    31     7     8    1
    32     7     1   ar
    33    21    13   ar
    34    29    23   ar
    35    21    16   ar
    36     3     9    1
    37     3    10    1
    38     8    11    1
    39     8    12    1
@<TRIPOS>MOLECULE
*****
 36 39 0 0 0
SMALL
GASTEIGER

@<TRIPOS>ATOM
      1 C         142.8176  140.1200  159.9555 C.ar    1  UNL1        0.1194
      2 C         143.3926  139.4003  161.1393 C.ar    1  UNL1        0.1452
      3 N         144.5902  138.5134  160.9687 N.pl3   1  UNL1       -0.3415
      4 N         142.7701  139.5677  162.4937 N.ar    1  UNL1       -0.1940
      5 C         141.5726  140.4545  162.6644 C.ar    1  UNL1        0.2554
      6 N         140.9975  141.1742  161.4806 N.ar    1  UNL1       -0.1940
      7 C         141.6200  141.0069  160.1261 C.ar    1  UNL1        0.1452
      8 N         141.0448  141.7265  158.9424 N.pl3   1  UNL1       -0.3415
      9 H         144.9988  138.4036  160.0797 H       1  UNL1        0.1438
     10 H         144.9677  138.0411  161.7456 H       1  UNL1        0.1438
     11 H         140.2588  142.3086  159.0545 H       1  UNL1        0.1438
     12 H         141.4533  141.6167  158.0534 H       1  UNL1        0.1438
     13 N         140.9501  140.6218  164.0189 N.ar    1  UNL1       -0.1967
     14 N         141.1347  141.7950  164.9352 N.ar    1  UNL1       -0.1666
     15 C         140.3324  141.5435  166.1774 C.ar    1  UNL1        0.0849
     16 C         139.6520  140.2150  166.0288 C.ar    1  UNL1        0.0334
     17 C         138.7341  139.4504  166.9359 C.ar    1  UNL1        0.0027
     18 C         138.1980  138.1162  166.5089 C.ar    1  UNL1        0.0001
     19 C         138.5798  137.5465  165.1748 C.ar    1  UNL1        0.0015
     20 C         139.4977  138.3111  164.2678 C.ar    1  UNL1        0.0193
     21 C         140.0338  139.6454  164.6948 C.ar    1  UNL1        0.0870
     22 C         140.2287  142.4597  167.3606 C.3     1  UNL1        0.0762
     23 C         141.0118  142.1677  168.6062 C.ar    1  UNL1        0.0135
     24 C         142.4799  142.4712  168.6576 C.ar    1  UNL1        0.0280
     25 C         143.2630  142.1792  169.9032 C.ar    1  UNL1        0.1400
     26 F         144.7310  142.4827  169.9546 F       1  UNL1       -0.2042
     27 C         142.5779  141.5837  171.0974 C.ar    1  UNL1        0.0319
     28 C         141.1099  141.2802  171.0460 C.ar    1  UNL1        0.0316
     29 C         140.3268  141.5722  169.8005 C.ar    1  UNL1        0.1366
     30 F         138.8587  141.2687  169.7491 F       1  UNL1       -0.2045
     31 C         143.0900  138.7634  157.7566 C.2     1  UNL1        0.4090
     32 O         142.1175  137.7416  158.2665 O.2     1  UNL1       -0.2258
     33 N         143.4400  139.9526  158.6010 N.am    1  UNL1       -0.2181
     34 C         144.4126  140.9745  158.0912 C.3     1  UNL1        0.1237
     35 C         143.0058  139.1105  155.1831 C.3     1  UNL1        0.2574
     36 O         143.7125  138.5960  156.4021 O.3     1  UNL1       -0.4302
@<TRIPOS>BOND
     1    35    36    1
     2    36    31    1
     3    31    32    2
     4    31    33   am
     5    33    34    1
     6    33     1    1
     7     1     2   ar
     8     2     3    1
     9     2     4   ar
    10     4     5   ar
    11     5    13    1
    12    13    14   ar
    13    14    15   ar
    14    15    22    1
    15    22    23    1
    16    23    24   ar
    17    24    25   ar
    18    25    26    1
    19    25    27   ar
    20    27    28   ar
    21    28    29   ar
    22    29    30    1
    23    15    16   ar
    24    16    17   ar
    25    17    18   ar
    26    18    19   ar
    27    19    20   ar
    28    20    21   ar
    29     5     6   ar
    30     6     7   ar
    31     7     8    1
    32     7     1   ar
    33    21    13   ar
    34    29    23   ar
    35    21    16   ar
    36     3     9    1
    37     3    10    1
    38     8    11    1
    39     8    12    1
@<TRIPOS>MOLECULE
*****
 36 39 0 0 0
SMALL
GASTEIGER

@<TRIPOS>ATOM
      1 C         140.5710  144.6879  157.7580 C.ar    1  UNL1        0.1194
      2 C         139.6519  143.7391  158.4688 C.ar    1  UNL1        0.1452
      3 N         138.5458  143.0610  157.7160 N.pl3   1  UNL1       -0.3415
      4 N         139.8390  143.4685  159.9322 N.ar    1  UNL1       -0.1940
      5 C         140.9451  144.1465  160.6850 C.ar    1  UNL1        0.2554
      6 N         141.8642  145.0954  159.9743 N.ar    1  UNL1       -0.1940
      7 C         141.6771  145.3661  158.5108 C.ar    1  UNL1        0.1452
      8 N         142.5961  146.3149  157.8002 N.pl3   1  UNL1       -0.3415
      9 H         138.4231  143.2387  156.7555 H       1  UNL1        0.1438
     10 H         137.9426  142.4383  158.1825 H       1  UNL1        0.1438
     11 H         143.3221  146.7599  158.2943 H       1  UNL1        0.1438
     12 H         142.4734  146.4925  156.8396 H       1  UNL1        0.1438
     13 N         141.1321  143.8759  162.1485 N.ar    1  UNL1       -0.1967
     14 N         140.0805  144.0042  163.2103 N.ar    1  UNL1       -0.1666
     15 C         140.7021  143.6370  164.5251 C.ar    1  UNL1        0.0849
     16 C         142.1380  143.2817  164.2759 C.ar    1  UNL1        0.0334
     17 C         143.2378  142.8429  165.1966 C.ar    1  UNL1        0.0027
     18 C         144.6033  142.5517  164.6485 C.ar    1  UNL1        0.0001
     19 C         144.8691  142.6994  163.1797 C.ar    1  UNL1        0.0015
     20 C         143.7693  143.1382  162.2589 C.ar    1  UNL1        0.0193
     21 C         142.4038  143.4294  162.8070 C.ar    1  UNL1        0.0870
     22 C         140.0096  143.6268  165.8556 C.3     1  UNL1        0.0762
     23 C         139.9276  142.3562  166.6488 C.ar    1  UNL1        0.0135
     24 C         139.5227  141.0775  165.9772 C.ar    1  UNL1        0.0280
     25 C         139.4408  139.8070  166.7702 C.ar    1  UNL1        0.1400
     26 F         139.0359  138.5284  166.0985 F       1  UNL1       -0.2042
     27 C         139.7637  139.8152  168.2350 C.ar    1  UNL1        0.0319
     28 C         140.1685  141.0938  168.9067 C.ar    1  UNL1        0.0316
     29 C         140.2505  142.3643  168.1136 C.ar    1  UNL1        0.1366
     30 F         140.6554  143.6430  168.7853 F       1  UNL1       -0.2045
     31 C         139.7297  146.2313  155.8450 C.2     1  UNL1        0.4090
     32 O         139.2626  147.2333  156.8587 O.2     1  UNL1       -0.2258
     33 N         140.3839  144.9586  156.2946 N.am    1  UNL1       -0.2181
     34 C         140.8510  143.9566  155.2808 C.3     1  UNL1        0.1237
     35 C         140.4372  147.4800  153.6792 C.3     1  UNL1        0.2574
     36 O         139.5426  146.5021  154.3815 O.3     1  UNL1       -0.4302
@<TRIPOS>BOND
     1    35    36    1
     2    36    31    1
     3    31    32    2
     4    31    33   am
     5    33    34    1
     6    33     1    1
     7     1     2   ar
     8     2     3    1
     9     2     4   ar
    10     4     5   ar
    11     5    13    1
    12    13    14   ar
    13    14    15   ar
    14    15    22    1
    15    22    23    1
    16    23    24   ar
    17    24    25   ar
    18    25    26    1
    19    25    27   ar
    20    27    28   ar
    21    28    29   ar
    22    29    30    1
    23    15    16   ar
    24    16    17   ar
    25    17    18   ar
    26    18    19   ar
    27    19    20   ar
    28    20    21   ar
    29     5     6   ar
    30     6     7   ar
    31     7     8    1
    32     7     1   ar
    33    21    13   ar
    34    29    23   ar
    35    21    16   ar
    36     3     9    1
    37     3    10    1
    38     8    11    1
    39     8    12    1
@<TRIPOS>MOLECULE
*****
 36 39 0 0 0
SMALL
GASTEIGER

@<TRIPOS>ATOM
      1 C         140.6597  145.0832  156.4626 C.ar    1  UNL1        0.1194
      2 C         141.4316  145.4786  157.6865 C.ar    1  UNL1        0.1452
      3 N         142.6032  146.4075  157.5667 N.pl3   1  UNL1       -0.3415
      4 N         141.0318  144.9449  159.0302 N.ar    1  UNL1       -0.1940
      5 C         139.8603  144.0160  159.1500 C.ar    1  UNL1        0.2554
      6 N         139.0883  143.6207  157.9260 N.ar    1  UNL1       -0.1940
      7 C         139.4881  144.1543  156.5824 C.ar    1  UNL1        0.1452
      8 N         138.7162  143.7589  155.3586 N.pl3   1  UNL1       -0.3415
      9 H         142.8655  146.7577  156.6848 H       1  UNL1        0.1438
     10 H         143.1098  146.6670  158.3700 H       1  UNL1        0.1438
     11 H         137.9472  143.1492  155.4372 H       1  UNL1        0.1438
     12 H         138.9785  144.1091  154.4766 H       1  UNL1        0.1438
     13 N         139.4605  143.4824  160.4937 N.ar    1  UNL1       -0.1967
     14 N         138.3896  142.4652  160.7554 N.ar    1  UNL1       -0.1666
     15 C         138.3288  142.2265  162.2350 C.ar    1  UNL1        0.0849
     16 C         139.3620  143.0961  162.8878 C.ar    1  UNL1        0.0334
     17 C         139.7563  143.2815  164.3231 C.ar    1  UNL1        0.0027
     18 C         140.8501  144.2431  164.6821 C.ar    1  UNL1        0.0001
     19 C         141.5495  145.0193  163.6059 C.ar    1  UNL1        0.0015
     20 C         141.1552  144.8339  162.1706 C.ar    1  UNL1        0.0193
     21 C         140.0615  143.8724  161.8116 C.ar    1  UNL1        0.0870
     22 C         137.3980  141.2836  162.9384 C.3     1  UNL1        0.0762
     23 C         137.9457  140.0871  163.6586 C.ar    1  UNL1        0.0135
     24 C         138.0682  140.1028  165.1535 C.ar    1  UNL1        0.0280
     25 C         138.6158  138.9064  165.8738 C.ar    1  UNL1        0.1400
     26 F         138.7384  138.9221  167.3687 F       1  UNL1       -0.2042
     27 C         139.0409  137.6943  165.0991 C.ar    1  UNL1        0.0319
     28 C         138.9183  137.6787  163.6042 C.ar    1  UNL1        0.0316
     29 C         138.3707  138.8750  162.8839 C.ar    1  UNL1        0.1366
     30 F         138.2482  138.8594  161.3890 F       1  UNL1       -0.2045
     31 C         140.3782  146.8313  154.5614 C.2     1  UNL1        0.4090
     32 O         139.2972  147.5121  155.3474 O.2     1  UNL1       -0.2258
     33 N         141.0595  145.6169  155.1189 N.am    1  UNL1       -0.2181
     34 C         142.1405  144.9360  154.3329 C.3     1  UNL1        0.1237
     35 C         140.6633  148.8325  152.9291 C.3     1  UNL1        0.2574
     36 O         140.7779  147.3650  153.2177 O.3     1  UNL1       -0.4302
@<TRIPOS>BOND
     1    35    36    1
     2    36    31    1
     3    31    32    2
     4    31    33   am
     5    33    34    1
     6    33     1    1
     7     1     2   ar
     8     2     3    1
     9     2     4   ar
    10     4     5   ar
    11     5    13    1
    12    13    14   ar
    13    14    15   ar
    14    15    22    1
    15    22    23    1
    16    23    24   ar
    17    24    25   ar
    18    25    26    1
    19    25    27   ar
    20    27    28   ar
    21    28    29   ar
    22    29    30    1
    23    15    16   ar
    24    16    17   ar
    25    17    18   ar
    26    18    19   ar
    27    19    20   ar
    28    20    21   ar
    29     5     6   ar
    30     6     7   ar
    31     7     8    1
    32     7     1   ar
    33    21    13   ar
    34    29    23   ar
    35    21    16   ar
    36     3     9    1
    37     3    10    1
    38     8    11    1
    39     8    12    1
@<TRIPOS>MOLECULE
*****
 36 39 0 0 0
SMALL
GASTEIGER

@<TRIPOS>ATOM
      1 C         140.5519  144.7272  157.5888 C.ar    1  UNL1        0.1194
      2 C         141.6775  145.2715  158.4176 C.ar    1  UNL1        0.1452
      3 N         142.5986  146.3070  157.8439 N.pl3   1  UNL1       -0.3415
      4 N         141.8819  144.7803  159.8201 N.ar    1  UNL1       -0.1940
      5 C         140.9608  143.7449  160.3938 C.ar    1  UNL1        0.2554
      6 N         139.8352  143.2005  159.5650 N.ar    1  UNL1       -0.1940
      7 C         139.6308  143.6917  158.1626 C.ar    1  UNL1        0.1452
      8 N         138.5052  143.1474  157.3339 N.pl3   1  UNL1       -0.3415
      9 H         142.4645  146.6294  156.9234 H       1  UNL1        0.1438
     10 H         143.3374  146.6643  158.3878 H       1  UNL1        0.1438
     11 H         137.9007  142.4677  157.7105 H       1  UNL1        0.1438
     12 H         138.3710  143.4697  156.4134 H       1  UNL1        0.1438
     13 N         141.1652  143.2537  161.7963 N.ar    1  UNL1       -0.1967
     14 N         142.2023  142.2660  162.2423 N.ar    1  UNL1       -0.1666
     15 C         142.0464  142.0659  163.7206 C.ar    1  UNL1        0.0849
     16 C         140.9129  142.9298  164.1884 C.ar    1  UNL1        0.0334
     17 C         140.3063  143.1428  165.5436 C.ar    1  UNL1        0.0027
     18 C         139.1551  144.0899  165.7095 C.ar    1  UNL1        0.0001
     19 C         138.6104  144.8240  164.5202 C.ar    1  UNL1        0.0015
     20 C         139.2170  144.6110  163.1650 C.ar    1  UNL1        0.0193
     21 C         140.3682  143.6639  162.9991 C.ar    1  UNL1        0.0870
     22 C         142.8780  141.1607  164.5804 C.3     1  UNL1        0.0762
     23 C         142.7830  141.2499  166.0748 C.ar    1  UNL1        0.0135
     24 C         141.9986  140.2249  166.8389 C.ar    1  UNL1        0.0280
     25 C         141.9035  140.3140  168.3332 C.ar    1  UNL1        0.1400
     26 F         141.1191  139.2890  169.0974 F       1  UNL1       -0.2042
     27 C         142.5930  141.4283  169.0634 C.ar    1  UNL1        0.0319
     28 C         143.3774  142.4533  168.2992 C.ar    1  UNL1        0.0316
     29 C         143.4724  142.3642  166.8049 C.ar    1  UNL1        0.1366
     30 F         144.2569  143.3892  166.0408 F       1  UNL1       -0.2045
     31 C         139.6712  146.5351  155.9440 C.2     1  UNL1        0.4090
     32 O         139.1992  147.3606  157.1041 O.2     1  UNL1       -0.2258
     33 N         140.3475  145.2184  156.1864 N.am    1  UNL1       -0.2181
     34 C         140.8195  144.3929  155.0263 C.3     1  UNL1        0.1237
     35 C         139.6279  148.4841  154.2264 C.3     1  UNL1        0.2574
     36 O         139.4667  147.0264  154.5416 O.3     1  UNL1       -0.4302
@<TRIPOS>BOND
     1    35    36    1
     2    36    31    1
     3    31    32    2
     4    31    33   am
     5    33    34    1
     6    33     1    1
     7     1     2   ar
     8     2     3    1
     9     2     4   ar
    10     4     5   ar
    11     5    13    1
    12    13    14   ar
    13    14    15   ar
    14    15    22    1
    15    22    23    1
    16    23    24   ar
    17    24    25   ar
    18    25    26    1
    19    25    27   ar
    20    27    28   ar
    21    28    29   ar
    22    29    30    1
    23    15    16   ar
    24    16    17   ar
    25    17    18   ar
    26    18    19   ar
    27    19    20   ar
    28    20    21   ar
    29     5     6   ar
    30     6     7   ar
    31     7     8    1
    32     7     1   ar
    33    21    13   ar
    34    29    23   ar
    35    21    16   ar
    36     3     9    1
    37     3    10    1
    38     8    11    1
    39     8    12    1
