@<TRIPOS>MOLECULE
*****
 33 37 0 0 0
SMALL
GASTEIGER

@<TRIPOS>ATOM
      1 C         141.0115  142.0903  168.1486 C.3     1  UNL1        0.1309
      2 C         139.9164  141.1124  168.4560 C.3     1  UNL1        0.0562
      3 C         139.4442  140.1585  167.3990 C.ar    1  UNL1       -0.0215
      4 C         138.3492  139.1806  167.7063 C.ar    1  UNL1       -0.0044
      5 C         137.8770  138.2268  166.6493 C.ar    1  UNL1       -0.0003
      6 C         138.4999  138.2509  165.2850 C.ar    1  UNL1       -0.0003
      7 C         139.5950  139.2288  164.9776 C.ar    1  UNL1       -0.0023
      8 C         140.0671  140.1826  166.0346 C.ar    1  UNL1       -0.0019
      9 C         141.1622  141.1606  165.7273 C.3     1  UNL1        0.1111
     10 C         140.6900  140.2067  164.6703 C.3     1  UNL1        0.0328
     11 C         141.3129  140.2308  163.3059 C.3     1  UNL1        0.0187
     12 C         142.4080  141.2088  162.9986 C.3     1  UNL1        0.0578
     13 C         142.8802  142.1626  164.0556 C.3     1  UNL1        0.0187
     14 C         142.2573  142.1385  165.4200 C.3     1  UNL1        0.0328
     15 O         141.6344  142.1144  166.7843 O.3     1  UNL1       -0.3561
     16 N         143.0309  141.2329  161.6343 N.3     1  UNL1       -0.2716
     17 C         143.4690  142.5354  161.0327 C.3     1  UNL1        0.0896
     18 C         144.0919  142.5595  159.6684 C.3     1  UNL1        0.0896
     19 N         144.2767  141.2812  158.9056 N.3     1  UNL1       -0.2716
     20 C         143.8387  139.9788  159.5072 C.3     1  UNL1        0.0896
     21 C         143.2158  139.9547  160.8715 C.3     1  UNL1        0.0896
     22 C         144.8996  141.3053  157.5413 C.3     1  UNL1        0.0576
     23 C         144.4580  140.3224  156.4977 C.3     1  UNL1        0.0160
     24 C         145.0809  140.3465  155.1334 C.3     1  UNL1        0.0014
     25 C         146.1454  141.3535  154.8126 C.3     1  UNL1        0.0001
     26 C         146.5870  142.3363  155.8562 C.3     1  UNL1        0.0014
     27 C         145.9641  142.3122  157.2205 C.3     1  UNL1        0.0160
     28 C         141.4837  143.0441  169.2057 C.3     1  UNL1        0.1393
     29 C         142.7242  142.7386  169.9916 C.2     1  UNL1        0.3195
     30 O         143.2804  143.7577  170.9414 O.2     1  UNL1       -0.2500
     31 O         143.4085  141.4139  169.8277 O.3     1  UNL1       -0.4484
     32 C         142.5314  138.9689  169.8814 C.3     1  UNL1        0.0513
     33 C         142.9307  140.2219  170.6029 C.3     1  UNL1        0.2086
@<TRIPOS>BOND
     1    32    33    1
     2    33    31    1
     3    31    29    1
     4    29    30    2
     5    29    28    1
     6     1    28    1
     7     1     2    1
     8     2     3    1
     9     3     4   ar
    10     4     5   ar
    11     5     6   ar
    12     6     7   ar
    13     7     8   ar
    14     8     9    1
    15     9    10    1
    16    10    11    1
    17    11    12    1
    18    12    16    1
    19    16    17    1
    20    17    18    1
    21    18    19    1
    22    19    22    1
    23    22    23    1
    24    23    24    1
    25    24    25    1
    26    25    26    1
    27    26    27    1
    28    19    20    1
    29    20    21    1
    30    12    13    1
    31    13    14    1
    32     9    15    1
    33    15     1    1
    34     8     3   ar
    35    14     9    1
    36    21    16    1
    37    27    22    1
@<TRIPOS>MOLECULE
*****
 33 37 0 0 0
SMALL
GASTEIGER

@<TRIPOS>ATOM
      1 C         141.0081  142.2624  168.1823 C.3     1  UNL1        0.1309
      2 C         141.7406  140.9688  168.3816 C.3     1  UNL1        0.0562
      3 C         142.3381  140.2561  167.2047 C.ar    1  UNL1       -0.0215
      4 C         143.0706  138.9624  167.4040 C.ar    1  UNL1       -0.0044
      5 C         143.6680  138.2498  166.2270 C.ar    1  UNL1       -0.0003
      6 C         143.5330  138.8309  164.8508 C.ar    1  UNL1       -0.0003
      7 C         142.8005  140.1246  164.6515 C.ar    1  UNL1       -0.0023
      8 C         142.2030  140.8372  165.8284 C.ar    1  UNL1       -0.0019
      9 C         141.4705  142.1309  165.6291 C.3     1  UNL1        0.1111
     10 C         142.0679  141.4183  164.4521 C.3     1  UNL1        0.0328
     11 C         141.9329  141.9993  163.0759 C.3     1  UNL1        0.0187
     12 C         141.2003  143.2931  162.8766 C.3     1  UNL1        0.0578
     13 C         140.6029  144.0057  164.0535 C.3     1  UNL1        0.0187
     14 C         140.7380  143.4246  165.4298 C.3     1  UNL1        0.0328
     15 O         140.8731  142.8435  166.8061 O.3     1  UNL1       -0.3561
     16 N         141.0652  143.8742  161.5003 N.3     1  UNL1       -0.2716
     17 C         140.3417  145.1732  161.3024 C.3     1  UNL1        0.0896
     18 C         140.2066  145.7543  159.9261 C.3     1  UNL1        0.0896
     19 N         140.7950  145.0363  158.7478 N.3     1  UNL1       -0.2716
     20 C         141.5185  143.7374  158.9458 C.3     1  UNL1        0.0896
     21 C         141.6536  143.1563  160.3220 C.3     1  UNL1        0.0896
     22 C         140.6600  145.6174  157.3715 C.3     1  UNL1        0.0576
     23 C         141.5854  145.1756  156.2768 C.3     1  UNL1        0.0160
     24 C         141.4503  145.7567  154.9005 C.3     1  UNL1        0.0014
     25 C         140.3898  146.7796  154.6190 C.3     1  UNL1        0.0001
     26 C         139.4644  147.2213  155.7138 C.3     1  UNL1        0.0014
     27 C         139.5995  146.6402  157.0900 C.3     1  UNL1        0.0160
     28 C         140.4107  142.9751  169.3593 C.3     1  UNL1        0.1393
     29 C         139.8620  142.1888  170.5128 C.2     1  UNL1        0.3195
     30 O         140.5661  142.2093  171.8371 O.2     1  UNL1       -0.2500
     31 O         138.6091  141.3819  170.3419 O.3     1  UNL1       -0.4484
     32 C         138.4749  139.5083  168.5469 C.3     1  UNL1        0.0513
     33 C         138.6961  139.9316  169.9688 C.3     1  UNL1        0.2086
@<TRIPOS>BOND
     1    32    33    1
     2    33    31    1
     3    31    29    1
     4    29    30    2
     5    29    28    1
     6     1    28    1
     7     1     2    1
     8     2     3    1
     9     3     4   ar
    10     4     5   ar
    11     5     6   ar
    12     6     7   ar
    13     7     8   ar
    14     8     9    1
    15     9    10    1
    16    10    11    1
    17    11    12    1
    18    12    16    1
    19    16    17    1
    20    17    18    1
    21    18    19    1
    22    19    22    1
    23    22    23    1
    24    23    24    1
    25    24    25    1
    26    25    26    1
    27    26    27    1
    28    19    20    1
    29    20    21    1
    30    12    13    1
    31    13    14    1
    32     9    15    1
    33    15     1    1
    34     8     3   ar
    35    14     9    1
    36    21    16    1
    37    27    22    1
@<TRIPOS>MOLECULE
*****
 33 37 0 0 0
SMALL
GASTEIGER

@<TRIPOS>ATOM
      1 C         140.6443  141.7895  168.2133 C.3     1  UNL1        0.1309
      2 C         141.5325  140.5986  168.4197 C.3     1  UNL1        0.0562
      3 C         142.2170  139.9612  167.2469 C.ar    1  UNL1       -0.0215
      4 C         143.1052  138.7702  167.4533 C.ar    1  UNL1       -0.0044
      5 C         143.7896  138.1328  166.2806 C.ar    1  UNL1       -0.0003
      6 C         143.5858  138.6865  164.9015 C.ar    1  UNL1       -0.0003
      7 C         142.6977  139.8775  164.6951 C.ar    1  UNL1       -0.0023
      8 C         142.0132  140.5148  165.8678 C.ar    1  UNL1       -0.0019
      9 C         141.1250  141.7059  165.6614 C.3     1  UNL1        0.1111
     10 C         141.8095  141.0684  164.4887 C.3     1  UNL1        0.0328
     11 C         141.6057  141.6221  163.1096 C.3     1  UNL1        0.0187
     12 C         140.7175  142.8131  162.9032 C.3     1  UNL1        0.0578
     13 C         140.0331  143.4505  164.0759 C.3     1  UNL1        0.0187
     14 C         140.2368  142.8968  165.4551 C.3     1  UNL1        0.0328
     15 O         140.4406  142.3432  166.8342 O.3     1  UNL1       -0.3561
     16 N         140.5137  143.3668  161.5241 N.3     1  UNL1       -0.2716
     17 C         139.9472  142.4956  160.4423 C.3     1  UNL1        0.0896
     18 C         139.7434  143.0492  159.0632 C.3     1  UNL1        0.0896
     19 N         140.1062  144.4741  158.7659 N.3     1  UNL1       -0.2716
     20 C         140.6727  145.3452  159.8476 C.3     1  UNL1        0.0896
     21 C         140.8764  144.7915  161.2267 C.3     1  UNL1        0.0896
     22 C         139.9024  145.0277  157.3868 C.3     1  UNL1        0.0576
     23 C         139.6815  144.0980  156.2304 C.3     1  UNL1        0.0160
     24 C         139.4778  144.6517  154.8513 C.3     1  UNL1        0.0014
     25 C         139.4949  146.1350  154.6285 C.3     1  UNL1        0.0001
     26 C         139.7158  147.0646  155.7848 C.3     1  UNL1        0.0014
     27 C         139.9195  146.5109  157.1639 C.3     1  UNL1        0.0160
     28 C         139.9599  142.4269  169.3860 C.3     1  UNL1        0.1393
     29 C         140.7490  142.7890  170.6092 C.2     1  UNL1        0.3195
     30 O         140.4549  142.1171  171.9176 O.2     1  UNL1       -0.2500
     31 O         141.8323  143.8230  170.5239 O.3     1  UNL1       -0.4484
     32 C         143.8920  142.3462  169.9518 C.3     1  UNL1        0.0513
     33 C         143.2606  143.4348  170.7680 C.3     1  UNL1        0.2086
@<TRIPOS>BOND
     1    32    33    1
     2    33    31    1
     3    31    29    1
     4    29    30    2
     5    29    28    1
     6     1    28    1
     7     1     2    1
     8     2     3    1
     9     3     4   ar
    10     4     5   ar
    11     5     6   ar
    12     6     7   ar
    13     7     8   ar
    14     8     9    1
    15     9    10    1
    16    10    11    1
    17    11    12    1
    18    12    16    1
    19    16    17    1
    20    17    18    1
    21    18    19    1
    22    19    22    1
    23    22    23    1
    24    23    24    1
    25    24    25    1
    26    25    26    1
    27    26    27    1
    28    19    20    1
    29    20    21    1
    30    12    13    1
    31    13    14    1
    32     9    15    1
    33    15     1    1
    34     8     3   ar
    35    14     9    1
    36    21    16    1
    37    27    22    1
@<TRIPOS>MOLECULE
*****
 33 37 0 0 0
SMALL
GASTEIGER

@<TRIPOS>ATOM
      1 C         140.3665  142.4811  167.9076 C.3     1  UNL1        0.1309
      2 C         139.8222  141.1028  168.1397 C.3     1  UNL1        0.0562
      3 C         139.3397  140.2819  166.9806 C.ar    1  UNL1       -0.0215
      4 C         138.7954  138.9036  167.2127 C.ar    1  UNL1       -0.0044
      5 C         138.3129  138.0828  166.0536 C.ar    1  UNL1       -0.0003
      6 C         138.3747  138.6403  164.6625 C.ar    1  UNL1       -0.0003
      7 C         138.9190  140.0187  164.4304 C.ar    1  UNL1       -0.0023
      8 C         139.4015  140.8395  165.5894 C.ar    1  UNL1       -0.0019
      9 C         139.9458  142.2179  165.3574 C.3     1  UNL1        0.1111
     10 C         139.4633  141.3970  164.1983 C.3     1  UNL1        0.0328
     11 C         139.5250  141.9546  162.8071 C.3     1  UNL1        0.0187
     12 C         140.0694  143.3330  162.5750 C.3     1  UNL1        0.0578
     13 C         140.5519  144.1537  163.7341 C.3     1  UNL1        0.0187
     14 C         140.4901  143.5962  165.1252 C.3     1  UNL1        0.0328
     15 O         140.4283  143.0387  166.5164 O.3     1  UNL1       -0.3561
     16 N         140.1311  143.8905  161.1839 N.3     1  UNL1       -0.2716
     17 C         139.5833  143.0988  160.0336 C.3     1  UNL1        0.0896
     18 C         139.6451  143.6563  158.6424 C.3     1  UNL1        0.0896
     19 N         140.2547  145.0056  158.4016 N.3     1  UNL1       -0.2716
     20 C         140.8025  145.7972  159.5518 C.3     1  UNL1        0.0896
     21 C         140.7407  145.2397  160.9430 C.3     1  UNL1        0.0896
     22 C         140.3165  145.5631  157.0104 C.3     1  UNL1        0.0576
     23 C         139.5214  146.7848  156.6560 C.3     1  UNL1        0.0160
     24 C         139.5832  147.3423  155.2649 C.3     1  UNL1        0.0014
     25 C         140.4400  146.6782  154.2281 C.3     1  UNL1        0.0001
     26 C         141.2351  145.4567  154.5825 C.3     1  UNL1        0.0014
     27 C         141.1733  144.8991  155.9736 C.3     1  UNL1        0.0160
     28 C         140.8491  143.3020  169.0667 C.3     1  UNL1        0.1393
     29 C         140.5263  142.8811  170.4697 C.2     1  UNL1        0.3195
     30 O         139.2353  143.3085  171.1028 O.2     1  UNL1       -0.2500
     31 O         141.4945  142.0328  171.2397 O.3     1  UNL1       -0.4484
     32 C         142.6569  139.9185  170.2761 C.3     1  UNL1        0.0513
     33 C         142.6567  141.3955  170.5374 C.3     1  UNL1        0.2086
@<TRIPOS>BOND
     1    32    33    1
     2    33    31    1
     3    31    29    1
     4    29    30    2
     5    29    28    1
     6     1    28    1
     7     1     2    1
     8     2     3    1
     9     3     4   ar
    10     4     5   ar
    11     5     6   ar
    12     6     7   ar
    13     7     8   ar
    14     8     9    1
    15     9    10    1
    16    10    11    1
    17    11    12    1
    18    12    16    1
    19    16    17    1
    20    17    18    1
    21    18    19    1
    22    19    22    1
    23    22    23    1
    24    23    24    1
    25    24    25    1
    26    25    26    1
    27    26    27    1
    28    19    20    1
    29    20    21    1
    30    12    13    1
    31    13    14    1
    32     9    15    1
    33    15     1    1
    34     8     3   ar
    35    14     9    1
    36    21    16    1
    37    27    22    1
@<TRIPOS>MOLECULE
*****
 33 37 0 0 0
SMALL
GASTEIGER

@<TRIPOS>ATOM
      1 C         141.0054  143.1047  164.3355 C.3     1  UNL1        0.1309
      2 C         141.5041  142.4827  165.6061 C.3     1  UNL1        0.0562
      3 C         141.9944  141.0651  165.6052 C.ar    1  UNL1       -0.0215
      4 C         142.4931  140.4432  166.8758 C.ar    1  UNL1       -0.0044
      5 C         142.9834  139.0256  166.8748 C.ar    1  UNL1       -0.0003
      6 C         142.9749  138.2299  165.6033 C.ar    1  UNL1       -0.0003
      7 C         142.4761  138.8518  164.3327 C.ar    1  UNL1       -0.0023
      8 C         141.9859  140.2694  164.3337 C.ar    1  UNL1       -0.0019
      9 C         141.4871  140.8914  163.0630 C.3     1  UNL1        0.1111
     10 C         141.9774  139.4737  163.0621 C.3     1  UNL1        0.0328
     11 C         141.9689  138.6781  161.7906 C.3     1  UNL1        0.0187
     12 C         141.4701  139.3001  160.5199 C.3     1  UNL1        0.0578
     13 C         140.9799  140.7177  160.5209 C.3     1  UNL1        0.0187
     14 C         140.9884  141.5133  161.7924 C.3     1  UNL1        0.0328
     15 O         140.9969  142.3090  163.0640 O.3     1  UNL1       -0.3561
     16 N         141.4616  138.5044  159.2484 N.3     1  UNL1       -0.2716
     17 C         140.2158  138.4342  158.4159 C.3     1  UNL1        0.0896
     18 C         140.2073  137.6385  157.1443 C.3     1  UNL1        0.0896
     19 N         141.4447  136.9131  156.7053 N.3     1  UNL1       -0.2716
     20 C         142.6904  136.9833  157.5378 C.3     1  UNL1        0.0896
     21 C         142.6989  137.7790  158.8093 C.3     1  UNL1        0.0896
     22 C         141.4362  136.1174  155.4337 C.3     1  UNL1        0.0576
     23 C         140.6381  136.5937  154.2563 C.3     1  UNL1        0.0160
     24 C         140.6296  135.7980  152.9847 C.3     1  UNL1        0.0014
     25 C         141.4192  134.5261  152.8906 C.3     1  UNL1        0.0001
     26 C         142.2172  134.0498  154.0680 C.3     1  UNL1        0.0014
     27 C         142.2257  134.8455  155.3396 C.3     1  UNL1        0.0160
     28 C         140.5151  144.5223  164.3365 C.3     1  UNL1        0.1393
     29 C         139.0466  144.8080  164.4460 C.2     1  UNL1        0.3195
     30 O         138.4502  145.1711  165.7736 O.2     1  UNL1       -0.2500
     31 O         138.1746  144.7305  163.2280 O.3     1  UNL1       -0.4484
     32 C         137.5168  142.2404  163.5692 C.3     1  UNL1        0.0513
     33 C         137.8031  143.3948  162.6553 C.3     1  UNL1        0.2086
@<TRIPOS>BOND
     1    32    33    1
     2    33    31    1
     3    31    29    1
     4    29    30    2
     5    29    28    1
     6     1    28    1
     7     1     2    1
     8     2     3    1
     9     3     4   ar
    10     4     5   ar
    11     5     6   ar
    12     6     7   ar
    13     7     8   ar
    14     8     9    1
    15     9    10    1
    16    10    11    1
    17    11    12    1
    18    12    16    1
    19    16    17    1
    20    17    18    1
    21    18    19    1
    22    19    22    1
    23    22    23    1
    24    23    24    1
    25    24    25    1
    26    25    26    1
    27    26    27    1
    28    19    20    1
    29    20    21    1
    30    12    13    1
    31    13    14    1
    32     9    15    1
    33    15     1    1
    34     8     3   ar
    35    14     9    1
    36    21    16    1
    37    27    22    1
@<TRIPOS>MOLECULE
*****
 33 37 0 0 0
SMALL
GASTEIGER

@<TRIPOS>ATOM
      1 C         141.9032  141.9120  165.9284 C.3     1  UNL1        0.1309
      2 C         140.8073  142.9217  166.1001 C.3     1  UNL1        0.0562
      3 C         139.8035  143.1326  165.0055 C.ar    1  UNL1       -0.0215
      4 C         138.7077  144.1423  165.1772 C.ar    1  UNL1       -0.0044
      5 C         137.7040  144.3531  164.0827 C.ar    1  UNL1       -0.0003
      6 C         137.7961  143.5543  162.8164 C.ar    1  UNL1       -0.0003
      7 C         138.8920  142.5445  162.6448 C.ar    1  UNL1       -0.0023
      8 C         139.8957  142.3337  163.7393 C.ar    1  UNL1       -0.0019
      9 C         140.9916  141.3239  163.5677 C.3     1  UNL1        0.1111
     10 C         139.9878  141.5348  162.4731 C.3     1  UNL1        0.0328
     11 C         140.0800  140.7360  161.2069 C.3     1  UNL1        0.0187
     12 C         141.1759  139.7262  161.0352 C.3     1  UNL1        0.0578
     13 C         142.1796  139.5153  162.1298 C.3     1  UNL1        0.0187
     14 C         142.0875  140.3142  163.3960 C.3     1  UNL1        0.0328
     15 O         141.9953  141.1131  164.6622 O.3     1  UNL1       -0.3561
     16 N         141.2681  138.9273  159.7690 N.3     1  UNL1       -0.2716
     17 C         140.0485  138.7249  158.9195 C.3     1  UNL1        0.0896
     18 C         140.1406  137.9260  157.6533 C.3     1  UNL1        0.0896
     19 N         141.4524  137.3296  157.2366 N.3     1  UNL1       -0.2716
     20 C         142.6719  137.5320  158.0861 C.3     1  UNL1        0.0896
     21 C         142.5798  138.3309  159.3523 C.3     1  UNL1        0.0896
     22 C         141.5445  136.5307  155.9703 C.3     1  UNL1        0.0576
     23 C         142.6880  135.5821  155.7636 C.3     1  UNL1        0.0160
     24 C         142.7802  134.7832  154.4974 C.3     1  UNL1        0.0014
     25 C         141.7288  134.9330  153.4379 C.3     1  UNL1        0.0001
     26 C         140.5855  135.8815  153.6447 C.3     1  UNL1        0.0014
     27 C         140.4933  136.6804  154.9109 C.3     1  UNL1        0.0160
     28 C         142.9070  141.7011  167.0230 C.3     1  UNL1        0.1393
     29 C         142.5766  140.8076  168.1816 C.2     1  UNL1        0.3195
     30 O         142.9565  139.3570  168.1423 O.2     1  UNL1       -0.2500
     31 O         141.8663  141.3646  169.3796 O.3     1  UNL1       -0.4484
     32 C         140.6509  143.6299  169.7556 C.3     1  UNL1        0.0513
     33 C         141.9204  142.8360  169.6666 C.3     1  UNL1        0.2086
@<TRIPOS>BOND
     1    32    33    1
     2    33    31    1
     3    31    29    1
     4    29    30    2
     5    29    28    1
     6     1    28    1
     7     1     2    1
     8     2     3    1
     9     3     4   ar
    10     4     5   ar
    11     5     6   ar
    12     6     7   ar
    13     7     8   ar
    14     8     9    1
    15     9    10    1
    16    10    11    1
    17    11    12    1
    18    12    16    1
    19    16    17    1
    20    17    18    1
    21    18    19    1
    22    19    22    1
    23    22    23    1
    24    23    24    1
    25    24    25    1
    26    25    26    1
    27    26    27    1
    28    19    20    1
    29    20    21    1
    30    12    13    1
    31    13    14    1
    32     9    15    1
    33    15     1    1
    34     8     3   ar
    35    14     9    1
    36    21    16    1
    37    27    22    1
@<TRIPOS>MOLECULE
*****
 33 37 0 0 0
SMALL
GASTEIGER

@<TRIPOS>ATOM
      1 C         142.2744  141.9535  167.1553 C.3     1  UNL1        0.1309
      2 C         141.2449  140.9493  167.5815 C.3     1  UNL1        0.0562
      3 C         140.1802  140.5122  166.6194 C.ar    1  UNL1       -0.0215
      4 C         139.1507  139.5081  167.0456 C.ar    1  UNL1       -0.0044
      5 C         138.0861  139.0710  166.0835 C.ar    1  UNL1       -0.0003
      6 C         138.0510  139.6382  164.6953 C.ar    1  UNL1       -0.0003
      7 C         139.0805  140.6424  164.2692 C.ar    1  UNL1       -0.0023
      8 C         140.1451  141.0794  165.2312 C.ar    1  UNL1       -0.0019
      9 C         141.1747  142.0837  164.8051 C.3     1  UNL1        0.1111
     10 C         140.1100  141.6466  163.8430 C.3     1  UNL1        0.0328
     11 C         140.0749  142.2138  162.4548 C.3     1  UNL1        0.0187
     12 C         141.1045  143.2180  162.0287 C.3     1  UNL1        0.0578
     13 C         142.1691  143.6550  162.9907 C.3     1  UNL1        0.0187
     14 C         142.2042  143.0879  164.3789 C.3     1  UNL1        0.0328
     15 O         142.2393  142.5207  165.7671 O.3     1  UNL1       -0.3561
     16 N         141.0694  143.7852  160.6405 N.3     1  UNL1       -0.2716
     17 C         140.2895  145.0357  160.3607 C.3     1  UNL1        0.0896
     18 C         140.2544  145.6029  158.9725 C.3     1  UNL1        0.0896
     19 N         140.9992  144.9196  157.8641 N.3     1  UNL1       -0.2716
     20 C         141.7789  143.6691  158.1439 C.3     1  UNL1        0.0896
     21 C         141.8141  143.1020  159.5321 C.3     1  UNL1        0.0896
     22 C         140.9641  145.4867  156.4759 C.3     1  UNL1        0.0576
     23 C         142.0026  145.0798  155.4730 C.3     1  UNL1        0.0160
     24 C         141.9675  145.6470  154.0848 C.3     1  UNL1        0.0014
     25 C         140.8938  146.6211  153.6995 C.3     1  UNL1        0.0001
     26 C         139.8553  147.0280  154.7025 C.3     1  UNL1        0.0014
     27 C         139.8905  146.4608  156.0907 C.3     1  UNL1        0.0160
     28 C         143.3391  142.3906  168.1174 C.3     1  UNL1        0.1393
     29 C         143.1782  142.1262  169.5850 C.2     1  UNL1        0.3195
     30 O         143.7035  140.8533  170.1798 O.2     1  UNL1       -0.2500
     31 O         142.4919  143.1347  170.4579 O.3     1  UNL1       -0.4484
     32 C         139.9225  142.7540  170.5149 C.3     1  UNL1        0.0513
     33 C         141.1030  143.5932  170.1250 C.3     1  UNL1        0.2086
@<TRIPOS>BOND
     1    32    33    1
     2    33    31    1
     3    31    29    1
     4    29    30    2
     5    29    28    1
     6     1    28    1
     7     1     2    1
     8     2     3    1
     9     3     4   ar
    10     4     5   ar
    11     5     6   ar
    12     6     7   ar
    13     7     8   ar
    14     8     9    1
    15     9    10    1
    16    10    11    1
    17    11    12    1
    18    12    16    1
    19    16    17    1
    20    17    18    1
    21    18    19    1
    22    19    22    1
    23    22    23    1
    24    23    24    1
    25    24    25    1
    26    25    26    1
    27    26    27    1
    28    19    20    1
    29    20    21    1
    30    12    13    1
    31    13    14    1
    32     9    15    1
    33    15     1    1
    34     8     3   ar
    35    14     9    1
    36    21    16    1
    37    27    22    1
@<TRIPOS>MOLECULE
*****
 33 37 0 0 0
SMALL
GASTEIGER

@<TRIPOS>ATOM
      1 C         142.3888  141.1866  168.6094 C.3     1  UNL1        0.1309
      2 C         141.0528  140.5874  168.9349 C.3     1  UNL1        0.0562
      3 C         140.1706  140.0786  167.8335 C.ar    1  UNL1       -0.0215
      4 C         138.8346  139.4794  168.1590 C.ar    1  UNL1       -0.0044
      5 C         137.9525  138.9706  167.0577 C.ar    1  UNL1       -0.0003
      6 C         138.4064  139.0610  165.6309 C.ar    1  UNL1       -0.0003
      7 C         139.7424  139.6602  165.3054 C.ar    1  UNL1       -0.0023
      8 C         140.6245  140.1690  166.4067 C.ar    1  UNL1       -0.0019
      9 C         141.9606  140.7682  166.0812 C.3     1  UNL1        0.1111
     10 C         141.0784  140.2593  164.9799 C.3     1  UNL1        0.0328
     11 C         141.5324  140.3497  163.5531 C.3     1  UNL1        0.0187
     12 C         142.8685  140.9489  163.2276 C.3     1  UNL1        0.0578
     13 C         143.7506  141.4577  164.3289 C.3     1  UNL1        0.0187
     14 C         143.2967  141.3674  165.7557 C.3     1  UNL1        0.0328
     15 O         142.8427  141.2770  167.1826 O.3     1  UNL1       -0.3561
     16 N         143.3224  141.0393  161.8008 N.3     1  UNL1       -0.2716
     17 C         143.1277  139.8739  160.8766 C.3     1  UNL1        0.0896
     18 C         143.5816  139.9643  159.4498 C.3     1  UNL1        0.0896
     19 N         144.2302  141.2201  158.9472 N.3     1  UNL1       -0.2716
     20 C         144.4248  142.3853  159.8714 C.3     1  UNL1        0.0896
     21 C         143.9709  142.2950  161.2982 C.3     1  UNL1        0.0896
     22 C         144.6841  141.3104  157.5204 C.3     1  UNL1        0.0576
     23 C         143.9873  140.5109  156.4596 C.3     1  UNL1        0.0160
     24 C         144.4412  140.6013  155.0327 C.3     1  UNL1        0.0014
     25 C         145.5920  141.4912  154.6667 C.3     1  UNL1        0.0001
     26 C         146.2887  142.2906  155.7275 C.3     1  UNL1        0.0014
     27 C         145.8348  142.2003  157.1543 C.3     1  UNL1        0.0160
     28 C         143.2710  141.6954  169.7107 C.3     1  UNL1        0.1393
     29 C         142.9996  143.0338  170.3313 C.2     1  UNL1        0.3195
     30 O         141.5951  143.5551  170.4055 O.2     1  UNL1       -0.2500
     31 O         144.1327  143.8508  170.8776 O.3     1  UNL1       -0.4484
     32 C         146.6748  144.3761  170.9873 C.3     1  UNL1        0.0513
     33 C         145.5481  143.5002  170.5255 C.3     1  UNL1        0.2086
@<TRIPOS>BOND
     1    32    33    1
     2    33    31    1
     3    31    29    1
     4    29    30    2
     5    29    28    1
     6     1    28    1
     7     1     2    1
     8     2     3    1
     9     3     4   ar
    10     4     5   ar
    11     5     6   ar
    12     6     7   ar
    13     7     8   ar
    14     8     9    1
    15     9    10    1
    16    10    11    1
    17    11    12    1
    18    12    16    1
    19    16    17    1
    20    17    18    1
    21    18    19    1
    22    19    22    1
    23    22    23    1
    24    23    24    1
    25    24    25    1
    26    25    26    1
    27    26    27    1
    28    19    20    1
    29    20    21    1
    30    12    13    1
    31    13    14    1
    32     9    15    1
    33    15     1    1
    34     8     3   ar
    35    14     9    1
    36    21    16    1
    37    27    22    1
@<TRIPOS>MOLECULE
*****
 33 37 0 0 0
SMALL
GASTEIGER

@<TRIPOS>ATOM
      1 C         140.4421  143.2413  164.2212 C.3     1  UNL1        0.1309
      2 C         140.9956  142.6876  165.5007 C.3     1  UNL1        0.0562
      3 C         141.6047  141.3170  165.5234 C.ar    1  UNL1       -0.0215
      4 C         142.1582  140.7633  166.8028 C.ar    1  UNL1       -0.0044
      5 C         142.7672  139.3928  166.8255 C.ar    1  UNL1       -0.0003
      6 C         142.8227  138.5758  165.5687 C.ar    1  UNL1       -0.0003
      7 C         142.2692  139.1294  164.2893 C.ar    1  UNL1       -0.0023
      8 C         141.6602  140.5000  164.2666 C.ar    1  UNL1       -0.0019
      9 C         141.1066  141.0537  162.9871 C.3     1  UNL1        0.1111
     10 C         141.7157  139.6831  163.0098 C.3     1  UNL1        0.0328
     11 C         141.7711  138.8661  161.7530 C.3     1  UNL1        0.0187
     12 C         141.2176  139.4198  160.4735 C.3     1  UNL1        0.0578
     13 C         140.6086  140.7904  160.4508 C.3     1  UNL1        0.0187
     14 C         140.5531  141.6073  161.7076 C.3     1  UNL1        0.0328
     15 O         140.4976  142.4243  162.9644 O.3     1  UNL1       -0.3561
     16 N         141.2730  138.6029  159.2167 N.3     1  UNL1       -0.2716
     17 C         142.5571  137.9453  158.8057 C.3     1  UNL1        0.0896
     18 C         142.6126  137.1284  157.5489 C.3     1  UNL1        0.0896
     19 N         141.3840  136.9689  156.7032 N.3     1  UNL1       -0.2716
     20 C         140.1000  137.6264  157.1142 C.3     1  UNL1        0.0896
     21 C         140.0445  138.4434  158.3710 C.3     1  UNL1        0.0896
     22 C         141.4395  136.1520  155.4464 C.3     1  UNL1        0.0576
     23 C         142.4469  135.0486  155.3130 C.3     1  UNL1        0.0160
     24 C         142.5024  134.2316  154.0562 C.3     1  UNL1        0.0014
     25 C         141.5504  134.5181  152.9328 C.3     1  UNL1        0.0001
     26 C         140.5431  135.6214  153.0663 C.3     1  UNL1        0.0014
     27 C         140.4877  136.4384  154.3230 C.3     1  UNL1        0.0160
     28 C         139.8331  144.6119  164.1985 C.3     1  UNL1        0.1393
     29 C         139.1739  145.1191  162.9502 C.2     1  UNL1        0.3195
     30 O         137.7644  144.7180  162.6302 O.2     1  UNL1       -0.2500
     31 O         139.9243  146.0275  162.0219 O.3     1  UNL1       -0.4484
     32 C         140.1535  144.6934  159.8043 C.3     1  UNL1        0.0513
     33 C         140.7834  145.4480  160.9373 C.3     1  UNL1        0.2086
@<TRIPOS>BOND
     1    32    33    1
     2    33    31    1
     3    31    29    1
     4    29    30    2
     5    29    28    1
     6     1    28    1
     7     1     2    1
     8     2     3    1
     9     3     4   ar
    10     4     5   ar
    11     5     6   ar
    12     6     7   ar
    13     7     8   ar
    14     8     9    1
    15     9    10    1
    16    10    11    1
    17    11    12    1
    18    12    16    1
    19    16    17    1
    20    17    18    1
    21    18    19    1
    22    19    22    1
    23    22    23    1
    24    23    24    1
    25    24    25    1
    26    25    26    1
    27    26    27    1
    28    19    20    1
    29    20    21    1
    30    12    13    1
    31    13    14    1
    32     9    15    1
    33    15     1    1
    34     8     3   ar
    35    14     9    1
    36    21    16    1
    37    27    22    1
