@<TRIPOS>MOLECULE
*****
 34 37 0 0 0
SMALL
GASTEIGER

@<TRIPOS>ATOM
      1 O         138.0803  142.9154  160.8701 O.3     1  UNL1       -0.4727
      2 C         139.4607  144.4145  162.4817 C.ar    1  UNL1        0.0686
      3 C         139.7210  144.9433  163.8611 C.ar    1  UNL1        0.0059
      4 C         138.8612  144.5019  165.0082 C.ar    1  UNL1        0.0003
      5 C         137.7410  143.5316  164.7759 C.ar    1  UNL1        0.0031
      6 C         137.4807  143.0028  163.3966 C.ar    1  UNL1        0.0370
      7 C         138.3406  143.4442  162.2495 C.ar    1  UNL1        0.1413
      8 O         139.7691  145.7928  160.3011 O.2     1  UNL1       -0.2912
      9 C         140.3205  144.8559  161.3346 C.2     1  UNL1        0.1763
     10 C         141.7318  144.3604  161.2210 C.3     1  UNL1        0.0739
     11 C         142.7668  144.8116  162.2084 C.3     1  UNL1        0.0345
     12 C         143.6943  143.8115  162.8326 C.ar    1  UNL1       -0.0217
     13 C         144.3024  142.7269  161.9936 C.ar    1  UNL1       -0.0043
     14 C         145.2298  141.7268  162.6178 C.ar    1  UNL1       -0.0003
     15 C         145.5492  141.8113  164.0809 C.ar    1  UNL1       -0.0000
     16 C         144.9412  142.8959  164.9199 C.ar    1  UNL1       -0.0003
     17 C         144.0137  143.8960  164.2957 C.ar    1  UNL1       -0.0043
     18 C         138.6245  141.5776  160.4647 C.3     1  UNL1        0.2358
     19 C         138.1825  140.3385  161.1854 C.3     1  UNL1        0.1700
     20 O         136.7613  139.8720  161.0727 O.3     1  UNL1       -0.3793
     21 H         136.2659  140.4795  160.5014 H       1  UNL1        0.2106
     22 C         139.1617  139.5660  162.0187 C.3     1  UNL1        0.1056
     23 N         139.6680  140.1420  163.3078 N.3     1  UNL1       -0.2705
     24 C         140.8834  141.0211  163.3102 C.3     1  UNL1        0.0725
     25 C         141.3898  141.5971  164.5993 C.3     1  UNL1        0.0217
     26 C         140.6807  141.2941  165.8860 C.3     1  UNL1        0.0251
     27 C         139.4654  140.4150  165.8835 C.3     1  UNL1        0.0217
     28 C         138.9590  139.8390  164.5944 C.3     1  UNL1        0.0725
     29 C         141.1871  141.8701  167.1751 C.ar    1  UNL1       -0.0224
     30 C         140.2631  142.6512  168.0617 C.ar    1  UNL1       -0.0043
     31 C         140.7695  143.2272  169.3508 C.ar    1  UNL1       -0.0003
     32 C         142.1998  143.0222  169.7533 C.ar    1  UNL1       -0.0000
     33 C         143.1238  142.2411  168.8666 C.ar    1  UNL1       -0.0003
     34 C         142.6174  141.6651  167.5775 C.ar    1  UNL1       -0.0043
@<TRIPOS>BOND
     1     8     9    2
     2     9    10    1
     3    10    11    1
     4    11    12    1
     5    12    13   ar
     6    13    14   ar
     7    14    15   ar
     8    15    16   ar
     9    16    17   ar
    10     9     2    1
    11     2     3   ar
    12     3     4   ar
    13     4     5   ar
    14     5     6   ar
    15     6     7   ar
    16     7     1    1
    17     1    18    1
    18    18    19    1
    19    19    20    1
    20    19    22    1
    21    22    23    1
    22    23    24    1
    23    24    25    1
    24    25    26    1
    25    26    29    1
    26    29    30   ar
    27    30    31   ar
    28    31    32   ar
    29    32    33   ar
    30    33    34   ar
    31    26    27    1
    32    27    28    1
    33    17    12   ar
    34     7     2   ar
    35    28    23    1
    36    34    29   ar
    37    20    21    1
@<TRIPOS>MOLECULE
*****
 34 37 0 0 0
SMALL
GASTEIGER

@<TRIPOS>ATOM
      1 O         144.2768  140.7520  161.2371 O.3     1  UNL1       -0.4727
      2 C         142.4698  139.8452  162.8687 C.ar    1  UNL1        0.0686
      3 C         142.0918  139.2892  164.2096 C.ar    1  UNL1        0.0059
      4 C         143.1429  139.0841  165.2598 C.ar    1  UNL1        0.0003
      5 C         144.5721  139.4349  164.9692 C.ar    1  UNL1        0.0031
      6 C         144.9501  139.9909  163.6283 C.ar    1  UNL1        0.0370
      7 C         143.8989  140.1960  162.5780 C.ar    1  UNL1        0.1413
      8 O         141.1109  141.4331  161.3254 O.2     1  UNL1       -0.2912
      9 C         141.4186  140.0503  161.8185 C.2     1  UNL1        0.1763
     10 C         140.6752  138.8726  161.2613 C.3     1  UNL1        0.0739
     11 C         139.2719  138.5910  161.7097 C.3     1  UNL1        0.0345
     12 C         138.9039  138.7341  163.1569 C.ar    1  UNL1       -0.0217
     13 C         138.9553  137.5416  164.0653 C.ar    1  UNL1       -0.0043
     14 C         138.5873  137.6847  165.5123 C.ar    1  UNL1       -0.0003
     15 C         138.1681  139.0204  166.0511 C.ar    1  UNL1       -0.0000
     16 C         138.1168  140.2129  165.1427 C.ar    1  UNL1       -0.0003
     17 C         138.4847  140.0698  163.6956 C.ar    1  UNL1       -0.0043
     18 C         144.7956  142.1551  161.1261 C.3     1  UNL1        0.2358
     19 C         143.9503  143.3058  161.5859 C.3     1  UNL1        0.1700
     20 O         142.8679  143.8433  160.6974 O.3     1  UNL1       -0.3793
     21 H         142.8486  143.3383  159.8695 H       1  UNL1        0.2106
     22 C         144.1875  143.9190  162.9341 C.3     1  UNL1        0.1056
     23 N         143.4196  143.4298  164.1262 N.3     1  UNL1       -0.2705
     24 C         144.1434  143.0794  165.3924 C.3     1  UNL1        0.0725
     25 C         143.3755  142.5902  166.5844 C.3     1  UNL1        0.0217
     26 C         141.8838  142.4513  166.5102 C.3     1  UNL1        0.0251
     27 C         141.1600  142.8017  165.2440 C.3     1  UNL1        0.0217
     28 C         141.9279  143.2909  164.0520 C.3     1  UNL1        0.0725
     29 C         141.1159  141.9621  167.7023 C.ar    1  UNL1       -0.0224
     30 C         140.7662  140.5086  167.8243 C.ar    1  UNL1       -0.0043
     31 C         139.9983  140.0193  169.0163 C.ar    1  UNL1       -0.0003
     32 C         139.5801  140.9836  170.0864 C.ar    1  UNL1       -0.0000
     33 C         139.9297  142.4372  169.9644 C.ar    1  UNL1       -0.0003
     34 C         140.6976  142.9264  168.7724 C.ar    1  UNL1       -0.0043
@<TRIPOS>BOND
     1     8     9    2
     2     9    10    1
     3    10    11    1
     4    11    12    1
     5    12    13   ar
     6    13    14   ar
     7    14    15   ar
     8    15    16   ar
     9    16    17   ar
    10     9     2    1
    11     2     3   ar
    12     3     4   ar
    13     4     5   ar
    14     5     6   ar
    15     6     7   ar
    16     7     1    1
    17     1    18    1
    18    18    19    1
    19    19    20    1
    20    19    22    1
    21    22    23    1
    22    23    24    1
    23    24    25    1
    24    25    26    1
    25    26    29    1
    26    29    30   ar
    27    30    31   ar
    28    31    32   ar
    29    32    33   ar
    30    33    34   ar
    31    26    27    1
    32    27    28    1
    33    17    12   ar
    34     7     2   ar
    35    28    23    1
    36    34    29   ar
    37    20    21    1
@<TRIPOS>MOLECULE
*****
 34 37 0 0 0
SMALL
GASTEIGER

@<TRIPOS>ATOM
      1 O         139.9694  137.7109  161.5288 O.3     1  UNL1       -0.4727
      2 C         138.4493  139.4431  162.7282 C.ar    1  UNL1        0.0686
      3 C         137.8375  139.9831  163.9868 C.ar    1  UNL1        0.0059
      4 C         138.1340  139.3309  165.3046 C.ar    1  UNL1        0.0003
      5 C         139.0423  138.1386  165.3639 C.ar    1  UNL1        0.0031
      6 C         139.6541  137.5986  164.1052 C.ar    1  UNL1        0.0370
      7 C         139.3576  138.2509  162.7874 C.ar    1  UNL1        0.1413
      8 O         137.1090  139.5137  160.5036 O.2     1  UNL1       -0.2912
      9 C         138.1528  140.0953  161.4104 C.2     1  UNL1        0.1763
     10 C         138.9001  141.3293  160.9992 C.3     1  UNL1        0.0739
     11 C         138.2911  142.6826  161.2175 C.3     1  UNL1        0.0345
     12 C         138.5446  143.4215  162.4981 C.ar    1  UNL1       -0.0217
     13 C         139.7599  144.2900  162.6349 C.ar    1  UNL1       -0.0043
     14 C         140.0134  145.0288  163.9154 C.ar    1  UNL1       -0.0003
     15 C         139.0517  144.8992  165.0592 C.ar    1  UNL1       -0.0000
     16 C         137.8364  144.0307  164.9224 C.ar    1  UNL1       -0.0003
     17 C         137.5829  143.2918  163.6419 C.ar    1  UNL1       -0.0043
     18 C         141.0911  138.4512  160.8626 C.3     1  UNL1        0.2358
     19 C         142.4690  138.4155  161.4543 C.3     1  UNL1        0.1700
     20 O         143.3007  137.1720  161.3439 O.3     1  UNL1       -0.3793
     21 H         142.8026  136.4914  160.8647 H       1  UNL1        0.2106
     22 C         143.0153  139.6232  162.1564 C.3     1  UNL1        0.1056
     23 N         142.4607  140.0308  163.4891 N.3     1  UNL1       -0.2705
     24 C         141.5575  141.2239  163.5925 C.3     1  UNL1        0.0725
     25 C         141.0028  141.6315  164.9252 C.3     1  UNL1        0.0217
     26 C         141.3514  140.8461  166.1546 C.3     1  UNL1        0.0251
     27 C         142.2546  139.6530  166.0513 C.3     1  UNL1        0.0217
     28 C         142.8093  139.2454  164.7185 C.3     1  UNL1        0.0725
     29 C         140.7968  141.2537  167.4874 C.ar    1  UNL1       -0.0224
     30 C         140.0921  140.2460  168.3464 C.ar    1  UNL1       -0.0043
     31 C         139.5375  140.6536  169.6792 C.ar    1  UNL1       -0.0003
     32 C         139.6875  142.0689  170.1529 C.ar    1  UNL1       -0.0000
     33 C         140.3922  143.0766  169.2938 C.ar    1  UNL1       -0.0003
     34 C         140.9468  142.6689  167.9611 C.ar    1  UNL1       -0.0043
@<TRIPOS>BOND
     1     8     9    2
     2     9    10    1
     3    10    11    1
     4    11    12    1
     5    12    13   ar
     6    13    14   ar
     7    14    15   ar
     8    15    16   ar
     9    16    17   ar
    10     9     2    1
    11     2     3   ar
    12     3     4   ar
    13     4     5   ar
    14     5     6   ar
    15     6     7   ar
    16     7     1    1
    17     1    18    1
    18    18    19    1
    19    19    20    1
    20    19    22    1
    21    22    23    1
    22    23    24    1
    23    24    25    1
    24    25    26    1
    25    26    29    1
    26    29    30   ar
    27    30    31   ar
    28    31    32   ar
    29    32    33   ar
    30    33    34   ar
    31    26    27    1
    32    27    28    1
    33    17    12   ar
    34     7     2   ar
    35    28    23    1
    36    34    29   ar
    37    20    21    1
@<TRIPOS>MOLECULE
*****
 34 37 0 0 0
SMALL
GASTEIGER

@<TRIPOS>ATOM
      1 O         141.1231  137.6294  161.1667 O.3     1  UNL1       -0.4727
      2 C         142.8789  138.8780  162.6187 C.ar    1  UNL1        0.0686
      3 C         143.4572  139.2034  163.9639 C.ar    1  UNL1        0.0059
      4 C         142.8583  138.6056  165.2023 C.ar    1  UNL1        0.0003
      5 C         141.6808  137.6823  165.0956 C.ar    1  UNL1        0.0031
      6 C         141.1025  137.3569  163.7504 C.ar    1  UNL1        0.0370
      7 C         141.7015  137.9548  162.5119 C.ar    1  UNL1        0.1413
      8 O         144.4680  138.6910  160.5718 O.2     1  UNL1       -0.2912
      9 C         143.4778  139.4759  161.3802 C.2     1  UNL1        0.1763
     10 C         143.0867  140.8587  160.9502 C.3     1  UNL1        0.0739
     11 C         144.0528  141.9950  161.1091 C.3     1  UNL1        0.0345
     12 C         144.0587  142.8033  162.3728 C.ar    1  UNL1       -0.0217
     13 C         144.7825  142.2954  163.5845 C.ar    1  UNL1       -0.0043
     14 C         144.7883  143.1037  164.8481 C.ar    1  UNL1       -0.0003
     15 C         144.0705  144.4197  164.8999 C.ar    1  UNL1       -0.0000
     16 C         143.3468  144.9276  163.6882 C.ar    1  UNL1       -0.0003
     17 C         143.3409  144.1193  162.4247 C.ar    1  UNL1       -0.0043
     18 C         139.9340  138.3892  160.6579 C.3     1  UNL1        0.2358
     19 C         138.8079  138.7304  161.5882 C.3     1  UNL1        0.1700
     20 O         137.8654  137.6586  162.0498 O.3     1  UNL1       -0.3793
     21 H         138.1233  136.8101  161.6568 H       1  UNL1        0.2106
     22 C         138.6242  140.1434  162.0569 C.3     1  UNL1        0.1056
     23 N         139.2646  140.5991  163.3345 N.3     1  UNL1       -0.2705
     24 C         140.4174  141.5579  163.2952 C.3     1  UNL1        0.0725
     25 C         141.0578  142.0135  164.5728 C.3     1  UNL1        0.0217
     26 C         140.5454  141.5103  165.8897 C.3     1  UNL1        0.0251
     27 C         139.3926  140.5515  165.9290 C.3     1  UNL1        0.0217
     28 C         138.7522  140.0959  164.6514 C.3     1  UNL1        0.0725
     29 C         141.1858  141.9660  167.1673 C.ar    1  UNL1       -0.0224
     30 C         140.3774  142.7120  168.1870 C.ar    1  UNL1       -0.0043
     31 C         141.0178  143.1677  169.4646 C.ar    1  UNL1       -0.0003
     32 C         142.4666  142.8773  169.7225 C.ar    1  UNL1       -0.0000
     33 C         143.2750  142.1312  168.7028 C.ar    1  UNL1       -0.0003
     34 C         142.6346  141.6756  167.4252 C.ar    1  UNL1       -0.0043
@<TRIPOS>BOND
     1     8     9    2
     2     9    10    1
     3    10    11    1
     4    11    12    1
     5    12    13   ar
     6    13    14   ar
     7    14    15   ar
     8    15    16   ar
     9    16    17   ar
    10     9     2    1
    11     2     3   ar
    12     3     4   ar
    13     4     5   ar
    14     5     6   ar
    15     6     7   ar
    16     7     1    1
    17     1    18    1
    18    18    19    1
    19    19    20    1
    20    19    22    1
    21    22    23    1
    22    23    24    1
    23    24    25    1
    24    25    26    1
    25    26    29    1
    26    29    30   ar
    27    30    31   ar
    28    31    32   ar
    29    32    33   ar
    30    33    34   ar
    31    26    27    1
    32    27    28    1
    33    17    12   ar
    34     7     2   ar
    35    28    23    1
    36    34    29   ar
    37    20    21    1
@<TRIPOS>MOLECULE
*****
 34 37 0 0 0
SMALL
GASTEIGER

@<TRIPOS>ATOM
      1 O         143.8208  141.1730  160.2425 O.3     1  UNL1       -0.4727
      2 C         143.8203  139.5632  162.2817 C.ar    1  UNL1        0.0686
      3 C         144.2738  139.2268  163.6714 C.ar    1  UNL1        0.0059
      4 C         145.1814  140.1640  164.4116 C.ar    1  UNL1        0.0003
      5 C         145.6355  141.4376  163.7621 C.ar    1  UNL1        0.0031
      6 C         145.1819  141.7740  162.3724 C.ar    1  UNL1        0.0370
      7 C         144.2743  140.8367  161.6322 C.ar    1  UNL1        0.1413
      8 O         143.4801  137.6753  160.5295 O.2     1  UNL1       -0.2912
      9 C         142.9127  138.6260  161.5415 C.2     1  UNL1        0.1763
     10 C         141.4375  138.6394  161.8134 C.3     1  UNL1        0.0739
     11 C         140.8687  137.7853  162.9074 C.3     1  UNL1        0.0345
     12 C         140.3081  138.4244  164.1433 C.ar    1  UNL1       -0.0217
     13 C         141.2001  138.6945  165.3185 C.ar    1  UNL1       -0.0043
     14 C         140.6395  139.3336  166.5543 C.ar    1  UNL1       -0.0003
     15 C         139.1869  139.7026  166.6148 C.ar    1  UNL1       -0.0000
     16 C         138.2949  139.4325  165.4396 C.ar    1  UNL1       -0.0003
     17 C         138.8555  138.7934  164.2038 C.ar    1  UNL1       -0.0043
     18 C         144.1697  142.5021  159.6408 C.3     1  UNL1        0.2358
     19 C         143.0954  143.3568  159.0363 C.3     1  UNL1        0.1700
     20 O         143.2513  143.8811  157.6395 O.3     1  UNL1       -0.3793
     21 H         144.0961  143.5769  157.2724 H       1  UNL1        0.2106
     22 C         141.8654  143.6874  159.8285 C.3     1  UNL1        0.1056
     23 N         141.8419  143.4529  161.3099 N.3     1  UNL1       -0.2705
     24 C         141.0728  142.2951  161.8739 C.3     1  UNL1        0.0725
     25 C         141.0493  142.0606  163.3552 C.3     1  UNL1        0.0217
     26 C         141.7948  142.9839  164.2726 C.3     1  UNL1        0.0251
     27 C         142.5639  144.1417  163.7087 C.3     1  UNL1        0.0217
     28 C         142.5874  144.3761  162.2273 C.3     1  UNL1        0.0725
     29 C         141.7713  142.7494  165.7540 C.ar    1  UNL1       -0.0224
     30 C         142.9973  142.2402  166.4523 C.ar    1  UNL1       -0.0043
     31 C         142.9737  142.0057  167.9337 C.ar    1  UNL1       -0.0003
     32 C         141.7242  142.2804  168.7168 C.ar    1  UNL1       -0.0000
     33 C         140.4983  142.7897  168.0185 C.ar    1  UNL1       -0.0003
     34 C         140.5218  143.0241  166.5371 C.ar    1  UNL1       -0.0043
@<TRIPOS>BOND
     1     8     9    2
     2     9    10    1
     3    10    11    1
     4    11    12    1
     5    12    13   ar
     6    13    14   ar
     7    14    15   ar
     8    15    16   ar
     9    16    17   ar
    10     9     2    1
    11     2     3   ar
    12     3     4   ar
    13     4     5   ar
    14     5     6   ar
    15     6     7   ar
    16     7     1    1
    17     1    18    1
    18    18    19    1
    19    19    20    1
    20    19    22    1
    21    22    23    1
    22    23    24    1
    23    24    25    1
    24    25    26    1
    25    26    29    1
    26    29    30   ar
    27    30    31   ar
    28    31    32   ar
    29    32    33   ar
    30    33    34   ar
    31    26    27    1
    32    27    28    1
    33    17    12   ar
    34     7     2   ar
    35    28    23    1
    36    34    29   ar
    37    20    21    1
@<TRIPOS>MOLECULE
*****
 34 37 0 0 0
SMALL
GASTEIGER

@<TRIPOS>ATOM
      1 O         141.1748  142.6802  161.8160 O.3     1  UNL1       -0.4727
      2 C         138.6862  143.0743  162.4498 C.ar    1  UNL1        0.0686
      3 C         137.6574  143.6471  163.3790 C.ar    1  UNL1        0.0059
      4 C         138.0882  144.3988  164.6034 C.ar    1  UNL1        0.0003
      5 C         139.5480  144.5777  164.8988 C.ar    1  UNL1        0.0031
      6 C         140.5768  144.0048  163.9696 C.ar    1  UNL1        0.0370
      7 C         140.1459  143.2531  162.7452 C.ar    1  UNL1        0.1413
      8 O         138.1780  143.0253  159.9025 O.2     1  UNL1       -0.2912
      9 C         138.2554  142.3226  161.2254 C.2     1  UNL1        0.1763
     10 C         137.9019  140.8681  161.3239 C.3     1  UNL1        0.0739
     11 C         138.9034  139.8874  161.8581 C.3     1  UNL1        0.0345
     12 C         138.7470  139.3356  163.2442 C.ar    1  UNL1       -0.0217
     13 C         139.1701  137.9279  163.5431 C.ar    1  UNL1       -0.0043
     14 C         139.0138  137.3762  164.9292 C.ar    1  UNL1       -0.0003
     15 C         138.4344  138.2321  166.0162 C.ar    1  UNL1       -0.0000
     16 C         138.0113  139.6398  165.7172 C.ar    1  UNL1       -0.0003
     17 C         138.1677  140.1915  164.3312 C.ar    1  UNL1       -0.0043
     18 C         142.4007  143.4739  161.4734 C.3     1  UNL1        0.2358
     19 C         143.7256  143.1026  162.0706 C.3     1  UNL1        0.1700
     20 O         144.8682  144.0734  162.0228 O.3     1  UNL1       -0.3793
     21 H         144.5839  144.8857  161.5753 H       1  UNL1        0.2106
     22 C         143.9080  141.7608  162.7155 C.3     1  UNL1        0.1056
     23 N         143.2948  141.4833  164.0560 N.3     1  UNL1       -0.2705
     24 C         143.6780  142.3164  165.2430 C.3     1  UNL1        0.0725
     25 C         143.0648  142.0389  166.5835 C.3     1  UNL1        0.0217
     26 C         142.0682  140.9284  166.7370 C.3     1  UNL1        0.0251
     27 C         141.6850  140.0953  165.5500 C.3     1  UNL1        0.0217
     28 C         142.2983  140.3728  164.2095 C.3     1  UNL1        0.0725
     29 C         141.4550  140.6510  168.0775 C.ar    1  UNL1       -0.0224
     30 C         142.3285  140.2846  169.2406 C.ar    1  UNL1       -0.0043
     31 C         141.7152  140.0072  170.5811 C.ar    1  UNL1       -0.0003
     32 C         140.2284  140.0961  170.7585 C.ar    1  UNL1       -0.0000
     33 C         139.3549  140.4624  169.5954 C.ar    1  UNL1       -0.0003
     34 C         139.9682  140.7398  168.2550 C.ar    1  UNL1       -0.0043
@<TRIPOS>BOND
     1     8     9    2
     2     9    10    1
     3    10    11    1
     4    11    12    1
     5    12    13   ar
     6    13    14   ar
     7    14    15   ar
     8    15    16   ar
     9    16    17   ar
    10     9     2    1
    11     2     3   ar
    12     3     4   ar
    13     4     5   ar
    14     5     6   ar
    15     6     7   ar
    16     7     1    1
    17     1    18    1
    18    18    19    1
    19    19    20    1
    20    19    22    1
    21    22    23    1
    22    23    24    1
    23    24    25    1
    24    25    26    1
    25    26    29    1
    26    29    30   ar
    27    30    31   ar
    28    31    32   ar
    29    32    33   ar
    30    33    34   ar
    31    26    27    1
    32    27    28    1
    33    17    12   ar
    34     7     2   ar
    35    28    23    1
    36    34    29   ar
    37    20    21    1
@<TRIPOS>MOLECULE
*****
 34 37 0 0 0
SMALL
GASTEIGER

@<TRIPOS>ATOM
      1 O         140.0900  143.8482  160.6916 O.3     1  UNL1       -0.4727
      2 C         142.3949  143.3211  161.7684 C.ar    1  UNL1        0.0686
      3 C         143.4457  143.6155  162.7976 C.ar    1  UNL1        0.0059
      4 C         143.2424  144.7314  163.7791 C.ar    1  UNL1        0.0003
      5 C         141.9882  145.5529  163.7315 C.ar    1  UNL1        0.0031
      6 C         140.9375  145.2585  162.7023 C.ar    1  UNL1        0.0370
      7 C         141.1408  144.1426  161.7208 C.ar    1  UNL1        0.1413
      8 O         143.2182  142.4858  159.4502 O.2     1  UNL1       -0.2912
      9 C         142.5982  142.2052  160.7869 C.2     1  UNL1        0.1763
     10 C         142.1816  140.8086  161.1421 C.3     1  UNL1        0.0739
     11 C         141.3365  140.5642  162.3571 C.3     1  UNL1        0.0345
     12 C         141.9121  139.8394  163.5376 C.ar    1  UNL1       -0.0217
     13 C         141.3425  138.5164  163.9560 C.ar    1  UNL1       -0.0043
     14 C         141.9180  137.7917  165.1364 C.ar    1  UNL1       -0.0003
     15 C         143.0632  138.3899  165.8984 C.ar    1  UNL1       -0.0000
     16 C         143.6329  139.7129  165.4799 C.ar    1  UNL1       -0.0003
     17 C         143.0573  140.4376  164.2995 C.ar    1  UNL1       -0.0043
     18 C         138.9533  142.9271  161.0226 C.3     1  UNL1        0.2358
     19 C         138.0492  143.2370  162.1788 C.3     1  UNL1        0.1700
     20 O         137.5198  144.6281  162.3650 O.3     1  UNL1       -0.3793
     21 H         137.8558  145.1995  161.6568 H       1  UNL1        0.2106
     22 C         137.6746  142.1558  163.1486 C.3     1  UNL1        0.1056
     23 N         138.5543  141.8697  164.3294 N.3     1  UNL1       -0.2705
     24 C         139.5838  142.8727  164.7582 C.3     1  UNL1        0.0725
     25 C         140.4635  142.5865  165.9390 C.3     1  UNL1        0.0217
     26 C         140.3137  141.2973  166.6909 C.3     1  UNL1        0.0251
     27 C         139.2842  140.2943  166.2621 C.3     1  UNL1        0.0217
     28 C         138.4045  140.5805  165.0813 C.3     1  UNL1        0.0725
     29 C         141.1934  141.0112  167.8717 C.ar    1  UNL1       -0.0224
     30 C         140.9341  139.8055  168.7255 C.ar    1  UNL1       -0.0043
     31 C         141.8138  139.5193  169.9062 C.ar    1  UNL1       -0.0003
     32 C         142.9529  140.4388  170.2332 C.ar    1  UNL1       -0.0000
     33 C         143.2122  141.6445  169.3795 C.ar    1  UNL1       -0.0003
     34 C         142.3325  141.9307  168.1987 C.ar    1  UNL1       -0.0043
@<TRIPOS>BOND
     1     8     9    2
     2     9    10    1
     3    10    11    1
     4    11    12    1
     5    12    13   ar
     6    13    14   ar
     7    14    15   ar
     8    15    16   ar
     9    16    17   ar
    10     9     2    1
    11     2     3   ar
    12     3     4   ar
    13     4     5   ar
    14     5     6   ar
    15     6     7   ar
    16     7     1    1
    17     1    18    1
    18    18    19    1
    19    19    20    1
    20    19    22    1
    21    22    23    1
    22    23    24    1
    23    24    25    1
    24    25    26    1
    25    26    29    1
    26    29    30   ar
    27    30    31   ar
    28    31    32   ar
    29    32    33   ar
    30    33    34   ar
    31    26    27    1
    32    27    28    1
    33    17    12   ar
    34     7     2   ar
    35    28    23    1
    36    34    29   ar
    37    20    21    1
@<TRIPOS>MOLECULE
*****
 34 37 0 0 0
SMALL
GASTEIGER

@<TRIPOS>ATOM
      1 O         140.8473  138.1462  161.2108 O.3     1  UNL1       -0.4727
      2 C         139.0249  139.4635  162.5120 C.ar    1  UNL1        0.0686
      3 C         138.2741  139.7318  163.7826 C.ar    1  UNL1        0.0059
      4 C         138.5949  138.9510  165.0225 C.ar    1  UNL1        0.0003
      5 C         139.6666  137.9018  164.9918 C.ar    1  UNL1        0.0031
      6 C         140.4174  137.6335  163.7213 C.ar    1  UNL1        0.0370
      7 C         140.0965  138.4144  162.4813 C.ar    1  UNL1        0.1413
      8 O         137.5464  139.8387  160.4089 O.2     1  UNL1       -0.2912
      9 C         138.7041  140.2444  161.2722 C.2     1  UNL1        0.1763
     10 C         139.5410  141.4309  160.8955 C.3     1  UNL1        0.0739
     11 C         139.0008  142.8182  161.0786 C.3     1  UNL1        0.0345
     12 C         138.9847  143.4429  162.4422 C.ar    1  UNL1       -0.0217
     13 C         137.7729  143.3061  163.3156 C.ar    1  UNL1       -0.0043
     14 C         137.7569  143.9308  164.6792 C.ar    1  UNL1       -0.0003
     15 C         138.9526  144.6923  165.1694 C.ar    1  UNL1       -0.0000
     16 C         140.1644  144.8292  164.2960 C.ar    1  UNL1       -0.0003
     17 C         140.1804  144.2045  162.9324 C.ar    1  UNL1       -0.0043
     18 C         142.2928  137.7488  161.2634 C.3     1  UNL1        0.2358
     19 C         143.3564  138.7364  160.8848 C.3     1  UNL1        0.1700
     20 O         143.6849  138.9677  159.4395 O.3     1  UNL1       -0.3793
     21 H         143.1225  138.4036  158.8859 H       1  UNL1        0.2106
     22 C         144.0915  139.4927  161.9513 C.3     1  UNL1        0.1056
     23 N         143.3858  139.8824  163.2162 N.3     1  UNL1       -0.2705
     24 C         142.3793  140.9945  163.2015 C.3     1  UNL1        0.0725
     25 C         141.6735  141.3841  164.4664 C.3     1  UNL1        0.0217
     26 C         141.9743  140.6618  165.7461 C.3     1  UNL1        0.0251
     27 C         142.9807  139.5497  165.7609 C.3     1  UNL1        0.0217
     28 C         143.6865  139.1600  164.4960 C.3     1  UNL1        0.0725
     29 C         141.2685  141.0515  167.0110 C.ar    1  UNL1       -0.0224
     30 C         141.1727  142.4965  167.4018 C.ar    1  UNL1       -0.0043
     31 C         140.4669  142.8861  168.6667 C.ar    1  UNL1       -0.0003
     32 C         139.8570  141.8308  169.5409 C.ar    1  UNL1       -0.0000
     33 C         139.9528  140.3858  169.1501 C.ar    1  UNL1       -0.0003
     34 C         140.6586  139.9961  167.8852 C.ar    1  UNL1       -0.0043
@<TRIPOS>BOND
     1     8     9    2
     2     9    10    1
     3    10    11    1
     4    11    12    1
     5    12    13   ar
     6    13    14   ar
     7    14    15   ar
     8    15    16   ar
     9    16    17   ar
    10     9     2    1
    11     2     3   ar
    12     3     4   ar
    13     4     5   ar
    14     5     6   ar
    15     6     7   ar
    16     7     1    1
    17     1    18    1
    18    18    19    1
    19    19    20    1
    20    19    22    1
    21    22    23    1
    22    23    24    1
    23    24    25    1
    24    25    26    1
    25    26    29    1
    26    29    30   ar
    27    30    31   ar
    28    31    32   ar
    29    32    33   ar
    30    33    34   ar
    31    26    27    1
    32    27    28    1
    33    17    12   ar
    34     7     2   ar
    35    28    23    1
    36    34    29   ar
    37    20    21    1
@<TRIPOS>MOLECULE
*****
 34 37 0 0 0
SMALL
GASTEIGER

@<TRIPOS>ATOM
      1 O         138.6994  140.6648  162.0097 O.3     1  UNL1       -0.4727
      2 C         139.5310  138.5896  163.3333 C.ar    1  UNL1        0.0686
      3 C         139.6192  137.8166  164.6158 C.ar    1  UNL1        0.0059
      4 C         138.9639  138.3457  165.8570 C.ar    1  UNL1        0.0003
      5 C         138.2205  139.6479  165.8158 C.ar    1  UNL1        0.0031
      6 C         138.1323  140.4209  164.5334 C.ar    1  UNL1        0.0370
      7 C         138.7876  139.8917  163.2921 C.ar    1  UNL1        0.1413
      8 O         139.3522  137.7048  160.8972 O.2     1  UNL1       -0.2912
      9 C         140.1862  138.0605  162.0921 C.2     1  UNL1        0.1763
     10 C         141.6755  137.8872  162.0458 C.3     1  UNL1        0.0739
     11 C         142.5347  138.9459  161.4206 C.3     1  UNL1        0.0345
     12 C         143.5525  139.6720  162.2495 C.ar    1  UNL1       -0.0217
     13 C         143.9804  139.1107  163.5731 C.ar    1  UNL1       -0.0043
     14 C         144.9981  139.8368  164.4019 C.ar    1  UNL1       -0.0003
     15 C         145.5879  141.1242  163.9071 C.ar    1  UNL1       -0.0000
     16 C         145.1600  141.6855  162.5836 C.ar    1  UNL1       -0.0003
     17 C         144.1423  140.9594  161.7548 C.ar    1  UNL1       -0.0043
     18 C         138.0894  142.0352  162.0005 C.3     1  UNL1        0.2358
     19 C         138.8883  143.2085  161.5156 C.3     1  UNL1        0.1700
     20 O         138.9208  143.5409  160.0533 O.3     1  UNL1       -0.3793
     21 H         138.3768  142.9036  159.5646 H       1  UNL1        0.2106
     22 C         139.6547  144.0493  162.4931 C.3     1  UNL1        0.1056
     23 N         140.2020  143.4321  163.7459 N.3     1  UNL1       -0.2705
     24 C         139.5867  143.7597  165.0741 C.3     1  UNL1        0.0725
     25 C         140.1340  143.1425  166.3269 C.3     1  UNL1        0.0217
     26 C         141.2965  142.1976  166.2515 C.3     1  UNL1        0.0251
     27 C         141.9117  141.8699  164.9234 C.3     1  UNL1        0.0217
     28 C         141.3645  142.4872  163.6706 C.3     1  UNL1        0.0725
     29 C         141.8437  141.5803  167.5043 C.ar    1  UNL1       -0.0224
     30 C         141.4042  140.2071  167.9177 C.ar    1  UNL1       -0.0043
     31 C         141.9515  139.5898  169.1706 C.ar    1  UNL1       -0.0003
     32 C         142.9382  140.3458  170.0100 C.ar    1  UNL1       -0.0000
     33 C         143.3778  141.7191  169.5966 C.ar    1  UNL1       -0.0003
     34 C         142.8305  142.3363  168.3438 C.ar    1  UNL1       -0.0043
@<TRIPOS>BOND
     1     8     9    2
     2     9    10    1
     3    10    11    1
     4    11    12    1
     5    12    13   ar
     6    13    14   ar
     7    14    15   ar
     8    15    16   ar
     9    16    17   ar
    10     9     2    1
    11     2     3   ar
    12     3     4   ar
    13     4     5   ar
    14     5     6   ar
    15     6     7   ar
    16     7     1    1
    17     1    18    1
    18    18    19    1
    19    19    20    1
    20    19    22    1
    21    22    23    1
    22    23    24    1
    23    24    25    1
    24    25    26    1
    25    26    29    1
    26    29    30   ar
    27    30    31   ar
    28    31    32   ar
    29    32    33   ar
    30    33    34   ar
    31    26    27    1
    32    27    28    1
    33    17    12   ar
    34     7     2   ar
    35    28    23    1
    36    34    29   ar
    37    20    21    1
