@<TRIPOS>MOLECULE
*****
 39 43 0 0 0
SMALL
GASTEIGER

@<TRIPOS>ATOM
      1 C         139.5451  138.0738  164.0335 C.3     1  UNL1        0.2138
      2 C         138.9804  140.3388  160.9325 C.ar    1  UNL1        0.1233
      3 C         139.7997  139.9197  162.1170 C.ar    1  UNL1        0.1181
      4 N         139.0815  138.7956  162.8030 N.ar    1  UNL1       -0.2208
      5 N         137.8183  138.5200  162.0425 N.ar    1  UNL1       -0.0633
      6 N         137.7558  139.4738  160.8865 N.ar    1  UNL1       -0.1287
      7 C         139.8073  143.9374  159.4776 C.ar    1  UNL1        0.1547
      8 C         139.4626  142.8450  160.4460 C.ar    1  UNL1        0.0400
      9 C         139.3251  141.4312  159.9640 C.ar    1  UNL1        0.0241
     10 C         139.5323  141.1098  158.5136 C.ar    1  UNL1        0.0033
     11 C         139.8770  142.2022  157.5452 C.ar    1  UNL1        0.0207
     12 C         140.0145  143.6160  158.0272 C.ar    1  UNL1        0.0994
     13 N         140.3592  144.7084  157.0587 N.ar    1  UNL1       -0.2839
     14 C         141.7428  145.1473  156.6807 C.ar    1  UNL1        0.1826
     15 N         141.6195  146.2638  155.6866 N.ar    1  UNL1       -0.2280
     16 C         140.1596  146.5149  155.4502 C.ar    1  UNL1        0.0786
     17 C         139.5804  147.5462  154.5278 C.3     1  UNL1        0.0538
     18 C         139.3808  145.5536  156.2982 C.ar    1  UNL1        0.0963
     19 C         139.9609  145.6438  161.4307 C.3     1  UNL1        0.2525
     20 O         139.9448  145.3511  159.9596 O.3     1  UNL1       -0.4700
     21 C         140.8812  138.3969  164.6339 C.2     1  UNL1        0.2510
     22 O         142.1157  137.7092  164.1304 O.2     1  UNL1       -0.2727
     23 N         140.9830  139.4075  165.7376 N.am    1  UNL1       -0.2737
     24 C         142.3191  139.7305  166.3380 C.3     1  UNL1        0.0982
     25 C         142.6683  139.2254  167.7066 C.3     1  UNL1        0.0264
     26 C         143.3059  140.5587  165.5698 C.ar    1  UNL1       -0.0043
     27 C         144.2700  139.8969  164.6303 C.ar    1  UNL1       -0.0027
     28 C         145.2568  140.7251  163.8621 C.ar    1  UNL1       -0.0003
     29 C         145.2797  142.2151  164.0335 C.ar    1  UNL1       -0.0000
     30 C         144.3157  142.8769  164.9731 C.ar    1  UNL1       -0.0003
     31 C         143.3288  142.0487  165.7413 C.ar    1  UNL1       -0.0027
     32 C         139.7485  140.0950  166.2410 C.3     1  UNL1        0.0982
     33 C         138.9378  139.4721  167.3387 C.3     1  UNL1        0.0264
     34 C         139.3246  141.4054  165.6468 C.ar    1  UNL1       -0.0043
     35 C         140.0726  142.6603  165.9872 C.ar    1  UNL1       -0.0027
     36 C         139.6487  143.9706  165.3930 C.ar    1  UNL1       -0.0003
     37 C         138.4768  144.0262  164.4583 C.ar    1  UNL1       -0.0000
     38 C         137.7288  142.7714  164.1178 C.ar    1  UNL1       -0.0003
     39 C         138.1527  141.4610  164.7121 C.ar    1  UNL1       -0.0027
@<TRIPOS>BOND
     1    19    20    1
     2    20     7    1
     3     7     8   ar
     4     8     9   ar
     5     9     2    1
     6     2     3   ar
     7     3     4   ar
     8     4     1    1
     9     1    21    1
    10    21    22    2
    11    21    23   am
    12    23    24    1
    13    24    25    1
    14    24    26    1
    15    26    27   ar
    16    27    28   ar
    17    28    29   ar
    18    29    30   ar
    19    30    31   ar
    20    23    32    1
    21    32    33    1
    22    32    34    1
    23    34    35   ar
    24    35    36   ar
    25    36    37   ar
    26    37    38   ar
    27    38    39   ar
    28     4     5   ar
    29     5     6   ar
    30     9    10   ar
    31    10    11   ar
    32    11    12   ar
    33    12    13    1
    34    13    14   ar
    35    14    15   ar
    36    15    16   ar
    37    16    17    1
    38    16    18   ar
    39    12     7   ar
    40    18    13   ar
    41     6     2   ar
    42    31    26   ar
    43    39    34   ar
@<TRIPOS>MOLECULE
*****
 39 43 0 0 0
SMALL
GASTEIGER

@<TRIPOS>ATOM
      1 C         142.9041  143.3376  164.7009 C.3     1  UNL1        0.2138
      2 C         141.4118  143.2524  161.1188 C.ar    1  UNL1        0.1233
      3 C         141.5288  142.6868  162.5031 C.ar    1  UNL1        0.1181
      4 N         142.4917  143.5411  163.2731 N.ar    1  UNL1       -0.2208
      5 N         142.9698  144.6349  162.3646 N.ar    1  UNL1       -0.0633
      6 N         142.3024  144.4564  161.0332 N.ar    1  UNL1       -0.1287
      7 C         138.8395  140.9599  159.1496 C.ar    1  UNL1        0.1547
      8 C         139.6966  141.5028  160.2544 C.ar    1  UNL1        0.0400
      9 C         140.5547  142.7095  160.0139 C.ar    1  UNL1        0.0241
     10 C         140.5557  143.3731  158.6688 C.ar    1  UNL1        0.0033
     11 C         139.6986  142.8301  157.5640 C.ar    1  UNL1        0.0207
     12 C         138.8405  141.6235  157.8044 C.ar    1  UNL1        0.0994
     13 N         137.9834  141.0805  156.6996 N.ar    1  UNL1       -0.2839
     14 C         138.4509  140.2228  155.5613 C.ar    1  UNL1        0.1826
     15 N         137.2647  139.9121  154.6973 N.ar    1  UNL1       -0.2280
     16 C         136.0640  140.5779  155.3017 C.ar    1  UNL1        0.0786
     17 C         134.6649  140.5299  154.7631 C.3     1  UNL1        0.0538
     18 C         136.5082  141.3000  156.5391 C.ar    1  UNL1        0.0963
     19 C         137.2603  139.5939  160.6956 C.3     1  UNL1        0.2525
     20 O         137.9814  139.7533  159.3900 O.3     1  UNL1       -0.4700
     21 C         142.8023  141.9770  165.3242 C.2     1  UNL1        0.2510
     22 O         143.8710  140.9549  165.0723 O.2     1  UNL1       -0.2727
     23 N         141.6322  141.6386  166.1994 N.am    1  UNL1       -0.2737
     24 C         141.5305  140.2780  166.8227 C.3     1  UNL1        0.0982
     25 C         142.5106  139.8619  167.8793 C.3     1  UNL1        0.0264
     26 C         140.4486  139.3336  166.3896 C.ar    1  UNL1       -0.0043
     27 C         140.6822  138.4041  165.2357 C.ar    1  UNL1       -0.0027
     28 C         139.6003  137.4597  164.8025 C.ar    1  UNL1       -0.0003
     29 C         138.2849  137.4448  165.5233 C.ar    1  UNL1       -0.0000
     30 C         138.0514  138.3743  166.6772 C.ar    1  UNL1       -0.0003
     31 C         139.1333  139.3187  167.1104 C.ar    1  UNL1       -0.0027
     32 C         140.5636  142.6608  166.4513 C.3     1  UNL1        0.0982
     33 C         140.4597  143.3219  167.7937 C.3     1  UNL1        0.0264
     34 C         139.5990  143.0218  165.3608 C.ar    1  UNL1       -0.0043
     35 C         138.7547  141.9581  164.7239 C.ar    1  UNL1       -0.0027
     36 C         137.7901  142.3192  163.6334 C.ar    1  UNL1       -0.0003
     37 C         137.6698  143.7439  163.1799 C.ar    1  UNL1       -0.0000
     38 C         138.5142  144.8076  163.8168 C.ar    1  UNL1       -0.0003
     39 C         139.4788  144.4465  164.9072 C.ar    1  UNL1       -0.0027
@<TRIPOS>BOND
     1    19    20    1
     2    20     7    1
     3     7     8   ar
     4     8     9   ar
     5     9     2    1
     6     2     3   ar
     7     3     4   ar
     8     4     1    1
     9     1    21    1
    10    21    22    2
    11    21    23   am
    12    23    24    1
    13    24    25    1
    14    24    26    1
    15    26    27   ar
    16    27    28   ar
    17    28    29   ar
    18    29    30   ar
    19    30    31   ar
    20    23    32    1
    21    32    33    1
    22    32    34    1
    23    34    35   ar
    24    35    36   ar
    25    36    37   ar
    26    37    38   ar
    27    38    39   ar
    28     4     5   ar
    29     5     6   ar
    30     9    10   ar
    31    10    11   ar
    32    11    12   ar
    33    12    13    1
    34    13    14   ar
    35    14    15   ar
    36    15    16   ar
    37    16    17    1
    38    16    18   ar
    39    12     7   ar
    40    18    13   ar
    41     6     2   ar
    42    31    26   ar
    43    39    34   ar
@<TRIPOS>MOLECULE
*****
 39 43 0 0 0
SMALL
GASTEIGER

@<TRIPOS>ATOM
      1 C         140.2904  137.9844  164.0988 C.3     1  UNL1        0.2138
      2 C         138.8500  139.8079  160.9899 C.ar    1  UNL1        0.1233
      3 C         139.9306  139.6160  162.0123 C.ar    1  UNL1        0.1181
      4 N         139.5083  138.5078  162.9307 N.ar    1  UNL1       -0.2208
      5 N         138.1666  138.0147  162.4759 N.ar    1  UNL1       -0.0633
      6 N         137.7597  138.8183  161.2764 N.ar    1  UNL1       -0.1287
      7 C         139.2721  143.2362  159.0356 C.ar    1  UNL1        0.1547
      8 C         139.2640  142.2311  160.1490 C.ar    1  UNL1        0.0400
      9 C         138.8580  140.8130  159.8764 C.ar    1  UNL1        0.0241
     10 C         138.4602  140.4000  158.4903 C.ar    1  UNL1        0.0033
     11 C         138.4683  141.4051  157.3770 C.ar    1  UNL1        0.0207
     12 C         138.8743  142.8232  157.6496 C.ar    1  UNL1        0.0994
     13 N         138.8823  143.8283  156.5361 N.ar    1  UNL1       -0.2839
     14 C         137.6993  144.2389  155.7104 C.ar    1  UNL1        0.1826
     15 N         138.1607  145.2636  154.7168 N.ar    1  UNL1       -0.2280
     16 C         139.6290  145.4863  154.9285 C.ar    1  UNL1        0.0786
     17 C         140.4985  146.4303  154.1522 C.3     1  UNL1        0.0538
     18 C         140.0749  144.5992  156.0529 C.ar    1  UNL1        0.0963
     19 C         140.2295  145.0315  160.6512 C.3     1  UNL1        0.2525
     20 O         139.6780  144.6542  159.3083 O.3     1  UNL1       -0.4700
     21 C         141.4363  138.7794  164.6509 C.2     1  UNL1        0.2510
     22 O         142.8471  138.3874  164.3248 O.2     1  UNL1       -0.2727
     23 N         141.1717  139.9663  165.5289 N.am    1  UNL1       -0.2737
     24 C         142.3177  140.7613  166.0810 C.3     1  UNL1        0.0982
     25 C         143.1907  141.5589  165.1581 C.3     1  UNL1        0.0264
     26 C         142.5906  140.7587  167.5559 C.ar    1  UNL1       -0.0043
     27 C         143.0535  142.0134  168.2353 C.ar    1  UNL1       -0.0027
     28 C         143.3264  142.0107  169.7102 C.ar    1  UNL1       -0.0003
     29 C         143.1364  140.7534  170.5058 C.ar    1  UNL1       -0.0000
     30 C         142.6735  139.4987  169.8265 C.ar    1  UNL1       -0.0003
     31 C         142.4006  139.5013  168.3515 C.ar    1  UNL1       -0.0027
     32 C         139.7609  140.3583  165.8550 C.3     1  UNL1        0.0982
     33 C         138.9510  139.5246  166.8031 C.3     1  UNL1        0.0264
     34 C         139.1602  141.5838  165.2329 C.ar    1  UNL1       -0.0043
     35 C         139.6931  142.9413  165.5841 C.ar    1  UNL1       -0.0027
     36 C         139.0922  144.1668  164.9620 C.ar    1  UNL1       -0.0003
     37 C         137.9585  144.0349  163.9887 C.ar    1  UNL1       -0.0000
     38 C         137.4256  142.6775  163.6375 C.ar    1  UNL1       -0.0003
     39 C         138.0264  141.4519  164.2596 C.ar    1  UNL1       -0.0027
@<TRIPOS>BOND
     1    19    20    1
     2    20     7    1
     3     7     8   ar
     4     8     9   ar
     5     9     2    1
     6     2     3   ar
     7     3     4   ar
     8     4     1    1
     9     1    21    1
    10    21    22    2
    11    21    23   am
    12    23    24    1
    13    24    25    1
    14    24    26    1
    15    26    27   ar
    16    27    28   ar
    17    28    29   ar
    18    29    30   ar
    19    30    31   ar
    20    23    32    1
    21    32    33    1
    22    32    34    1
    23    34    35   ar
    24    35    36   ar
    25    36    37   ar
    26    37    38   ar
    27    38    39   ar
    28     4     5   ar
    29     5     6   ar
    30     9    10   ar
    31    10    11   ar
    32    11    12   ar
    33    12    13    1
    34    13    14   ar
    35    14    15   ar
    36    15    16   ar
    37    16    17    1
    38    16    18   ar
    39    12     7   ar
    40    18    13   ar
    41     6     2   ar
    42    31    26   ar
    43    39    34   ar
@<TRIPOS>MOLECULE
*****
 39 43 0 0 0
SMALL
GASTEIGER

@<TRIPOS>ATOM
      1 C         139.4633  138.1853  163.2524 C.3     1  UNL1        0.2138
      2 C         138.6935  140.5761  160.2932 C.ar    1  UNL1        0.1233
      3 C         139.6254  140.0504  161.3445 C.ar    1  UNL1        0.1181
      4 N         138.9047  138.9803  162.1095 N.ar    1  UNL1       -0.2208
      5 N         137.5274  138.8445  161.5311 N.ar    1  UNL1       -0.0633
      6 N         137.3969  139.8308  160.4085 N.ar    1  UNL1       -0.1287
      7 C         138.6787  142.7142  156.9498 C.ar    1  UNL1        0.1547
      8 C         138.3685  141.6330  157.9422 C.ar    1  UNL1        0.0400
      9 C         139.0037  141.6573  159.3008 C.ar    1  UNL1        0.0241
     10 C         139.9491  142.7628  159.6671 C.ar    1  UNL1        0.0033
     11 C         140.2593  143.8439  158.6747 C.ar    1  UNL1        0.0207
     12 C         139.6241  143.8196  157.3160 C.ar    1  UNL1        0.0994
     13 N         139.9344  144.9008  156.3236 N.ar    1  UNL1       -0.2839
     14 C         140.9349  144.8143  155.2094 C.ar    1  UNL1        0.1826
     15 N         140.9174  146.1183  154.4684 N.ar    1  UNL1       -0.2280
     16 C         139.9060  147.0109  155.1246 C.ar    1  UNL1        0.0786
     17 C         139.5625  148.4102  154.7075 C.3     1  UNL1        0.0538
     18 C         139.2985  146.2584  156.2712 C.ar    1  UNL1        0.0963
     19 C         136.6856  143.2936  155.3871 C.3     1  UNL1        0.2525
     20 O         138.0435  142.6899  155.5911 O.3     1  UNL1       -0.4700
     21 C         140.7868  138.5600  163.8506 C.2     1  UNL1        0.2510
     22 O         142.0525  137.9753  163.2969 O.2     1  UNL1       -0.2727
     23 N         140.8449  139.5192  165.0022 N.am    1  UNL1       -0.2737
     24 C         142.1684  139.8939  165.6003 C.3     1  UNL1        0.0982
     25 C         142.7990  139.0129  166.6378 C.3     1  UNL1        0.0264
     26 C         142.8615  141.1496  165.1610 C.ar    1  UNL1       -0.0043
     27 C         143.4437  142.0814  166.1821 C.ar    1  UNL1       -0.0027
     28 C         144.1367  143.3371  165.7428 C.ar    1  UNL1       -0.0003
     29 C         144.2475  143.6609  164.2823 C.ar    1  UNL1       -0.0000
     30 C         143.6652  142.7290  163.2612 C.ar    1  UNL1       -0.0003
     31 C         142.9722  141.4733  163.7006 C.ar    1  UNL1       -0.0027
     32 C         139.5792  140.1038  165.5558 C.3     1  UNL1        0.0982
     33 C         138.7574  139.3206  166.5363 C.3     1  UNL1        0.0264
     34 C         139.1353  141.4715  165.1289 C.ar    1  UNL1       -0.0043
     35 C         139.7816  142.6887  165.7211 C.ar    1  UNL1       -0.0027
     36 C         139.3376  144.0564  165.2942 C.ar    1  UNL1       -0.0003
     37 C         138.2472  144.2069  164.2751 C.ar    1  UNL1       -0.0000
     38 C         137.6009  142.9897  163.6829 C.ar    1  UNL1       -0.0003
     39 C         138.0449  141.6220  164.1098 C.ar    1  UNL1       -0.0027
@<TRIPOS>BOND
     1    19    20    1
     2    20     7    1
     3     7     8   ar
     4     8     9   ar
     5     9     2    1
     6     2     3   ar
     7     3     4   ar
     8     4     1    1
     9     1    21    1
    10    21    22    2
    11    21    23   am
    12    23    24    1
    13    24    25    1
    14    24    26    1
    15    26    27   ar
    16    27    28   ar
    17    28    29   ar
    18    29    30   ar
    19    30    31   ar
    20    23    32    1
    21    32    33    1
    22    32    34    1
    23    34    35   ar
    24    35    36   ar
    25    36    37   ar
    26    37    38   ar
    27    38    39   ar
    28     4     5   ar
    29     5     6   ar
    30     9    10   ar
    31    10    11   ar
    32    11    12   ar
    33    12    13    1
    34    13    14   ar
    35    14    15   ar
    36    15    16   ar
    37    16    17    1
    38    16    18   ar
    39    12     7   ar
    40    18    13   ar
    41     6     2   ar
    42    31    26   ar
    43    39    34   ar
@<TRIPOS>MOLECULE
*****
 39 43 0 0 0
SMALL
GASTEIGER

@<TRIPOS>ATOM
      1 C         143.1571  143.3796  164.8700 C.3     1  UNL1        0.2138
      2 C         141.0668  144.2243  161.7105 C.ar    1  UNL1        0.1233
      3 C         141.8519  143.2526  162.5407 C.ar    1  UNL1        0.1181
      4 N         142.3329  143.9724  163.7657 N.ar    1  UNL1       -0.2208
      5 N         141.8450  145.3890  163.6926 N.ar    1  UNL1       -0.0633
      6 N         141.0625  145.5447  162.4224 N.ar    1  UNL1       -0.1287
      7 C         140.0654  144.4559  157.8773 C.ar    1  UNL1        0.1547
      8 C         140.7296  144.7524  159.1891 C.ar    1  UNL1        0.0400
      9 C         140.4025  143.9279  160.3987 C.ar    1  UNL1        0.0241
     10 C         139.4110  142.8069  160.2965 C.ar    1  UNL1        0.0033
     11 C         138.7468  142.5104  158.9847 C.ar    1  UNL1        0.0207
     12 C         139.0740  143.3350  157.7751 C.ar    1  UNL1        0.0994
     13 N         138.4097  143.0385  156.4632 N.ar    1  UNL1       -0.2839
     14 C         137.0891  143.5795  156.0015 C.ar    1  UNL1        0.1826
     15 N         136.8126  143.0243  154.6357 N.ar    1  UNL1       -0.2280
     16 C         137.9624  142.1401  154.2533 C.ar    1  UNL1        0.0786
     17 C         138.1009  141.3805  152.9673 C.3     1  UNL1        0.0538
     18 C         138.9494  142.1489  155.3828 C.ar    1  UNL1        0.0963
     19 C         139.6866  146.5832  156.4347 C.3     1  UNL1        0.2525
     20 O         140.3926  145.2805  156.6677 O.3     1  UNL1       -0.4700
     21 C         143.1247  141.9008  165.1192 C.2     1  UNL1        0.2510
     22 O         144.1785  141.0163  164.5214 O.2     1  UNL1       -0.2727
     23 N         142.0387  141.3065  165.9660 N.am    1  UNL1       -0.2737
     24 C         142.0064  139.8277  166.2152 C.3     1  UNL1        0.0982
     25 C         142.8410  139.2332  167.3107 C.3     1  UNL1        0.0264
     26 C         141.1394  138.9433  165.3689 C.ar    1  UNL1       -0.0043
     27 C         139.6931  138.7541  165.7189 C.ar    1  UNL1       -0.0027
     28 C         138.8261  137.8698  164.8726 C.ar    1  UNL1       -0.0003
     29 C         139.4054  137.1747  163.6763 C.ar    1  UNL1       -0.0000
     30 C         140.8517  137.3639  163.3263 C.ar    1  UNL1       -0.0003
     31 C         141.7187  138.2482  164.1726 C.ar    1  UNL1       -0.0027
     32 C         140.9850  142.1911  166.5638 C.3     1  UNL1        0.0982
     33 C         141.0201  142.5153  168.0279 C.3     1  UNL1        0.0264
     34 C         139.8962  142.7513  165.6975 C.ar    1  UNL1       -0.0043
     35 C         139.2587  141.8933  164.6451 C.ar    1  UNL1       -0.0027
     36 C         138.1699  142.4537  163.7788 C.ar    1  UNL1       -0.0003
     37 C         137.7185  143.8720  163.9650 C.ar    1  UNL1       -0.0000
     38 C         138.3559  144.7300  165.0174 C.ar    1  UNL1       -0.0003
     39 C         139.4447  144.1696  165.8836 C.ar    1  UNL1       -0.0027
@<TRIPOS>BOND
     1    19    20    1
     2    20     7    1
     3     7     8   ar
     4     8     9   ar
     5     9     2    1
     6     2     3   ar
     7     3     4   ar
     8     4     1    1
     9     1    21    1
    10    21    22    2
    11    21    23   am
    12    23    24    1
    13    24    25    1
    14    24    26    1
    15    26    27   ar
    16    27    28   ar
    17    28    29   ar
    18    29    30   ar
    19    30    31   ar
    20    23    32    1
    21    32    33    1
    22    32    34    1
    23    34    35   ar
    24    35    36   ar
    25    36    37   ar
    26    37    38   ar
    27    38    39   ar
    28     4     5   ar
    29     5     6   ar
    30     9    10   ar
    31    10    11   ar
    32    11    12   ar
    33    12    13    1
    34    13    14   ar
    35    14    15   ar
    36    15    16   ar
    37    16    17    1
    38    16    18   ar
    39    12     7   ar
    40    18    13   ar
    41     6     2   ar
    42    31    26   ar
    43    39    34   ar
@<TRIPOS>MOLECULE
*****
 39 43 0 0 0
SMALL
GASTEIGER

@<TRIPOS>ATOM
      1 C         142.2962  144.0619  164.1873 C.3     1  UNL1        0.2138
      2 C         142.5803  142.3192  160.7308 C.ar    1  UNL1        0.1233
      3 C         142.3701  142.2595  162.2148 C.ar    1  UNL1        0.1181
      4 N         142.4492  143.6582  162.7508 N.ar    1  UNL1       -0.2208
      5 N         142.7083  144.5824  161.5980 N.ar    1  UNL1       -0.0633
      6 N         142.7893  143.7548  160.3496 N.ar    1  UNL1       -0.1287
      7 C         143.6734  139.8351  157.8352 C.ar    1  UNL1        0.1547
      8 C         143.6724  141.0054  158.7733 C.ar    1  UNL1        0.0400
      9 C         142.5813  141.1487  159.7926 C.ar    1  UNL1        0.0241
     10 C         141.4912  140.1216  159.8737 C.ar    1  UNL1        0.0033
     11 C         141.4922  138.9512  158.9356 C.ar    1  UNL1        0.0207
     12 C         142.5833  138.8079  157.9163 C.ar    1  UNL1        0.0994
     13 N         142.5843  137.6375  156.9781 N.ar    1  UNL1       -0.2839
     14 C         142.9926  136.2349  157.3187 C.ar    1  UNL1        0.1826
     15 N         142.8378  135.3947  156.0858 N.ar    1  UNL1       -0.2280
     16 C         142.3339  136.2781  154.9831 C.ar    1  UNL1        0.0786
     17 C         142.0385  135.8505  153.5760 C.3     1  UNL1        0.0538
     18 C         142.1772  137.6642  155.5347 C.ar    1  UNL1        0.0963
     19 C         145.3977  140.9132  156.2183 C.3     1  UNL1        0.2525
     20 O         144.7646  139.6918  156.8159 O.3     1  UNL1       -0.4700
     21 C         141.9963  143.0258  165.2297 C.2     1  UNL1        0.2510
     22 O         143.1182  142.3625  165.9725 O.2     1  UNL1       -0.2727
     23 N         140.5747  142.6529  165.5293 N.am    1  UNL1       -0.2737
     24 C         140.2748  141.6168  166.5717 C.3     1  UNL1        0.0982
     25 C         140.4343  141.9479  168.0260 C.3     1  UNL1        0.0264
     26 C         139.8153  140.2496  166.1597 C.ar    1  UNL1       -0.0043
     27 C         140.6641  139.4170  165.2452 C.ar    1  UNL1       -0.0027
     28 C         140.2047  138.0499  164.8333 C.ar    1  UNL1       -0.0003
     29 C         138.8964  137.5153  165.3359 C.ar    1  UNL1       -0.0000
     30 C         138.0475  138.3479  166.2504 C.ar    1  UNL1       -0.0003
     31 C         138.5070  139.7150  166.6623 C.ar    1  UNL1       -0.0027
     32 C         139.4529  143.3162  164.7865 C.3     1  UNL1        0.0982
     33 C         138.8329  144.5702  165.3279 C.3     1  UNL1        0.0264
     34 C         138.9510  142.7255  163.5023 C.ar    1  UNL1       -0.0043
     35 C         138.1577  141.4526  163.5217 C.ar    1  UNL1       -0.0027
     36 C         137.6559  140.8620  162.2375 C.ar    1  UNL1       -0.0003
     37 C         137.9474  141.5442  160.9338 C.ar    1  UNL1       -0.0000
     38 C         138.7407  142.8171  160.9144 C.ar    1  UNL1       -0.0003
     39 C         139.2425  143.4078  162.1986 C.ar    1  UNL1       -0.0027
@<TRIPOS>BOND
     1    19    20    1
     2    20     7    1
     3     7     8   ar
     4     8     9   ar
     5     9     2    1
     6     2     3   ar
     7     3     4   ar
     8     4     1    1
     9     1    21    1
    10    21    22    2
    11    21    23   am
    12    23    24    1
    13    24    25    1
    14    24    26    1
    15    26    27   ar
    16    27    28   ar
    17    28    29   ar
    18    29    30   ar
    19    30    31   ar
    20    23    32    1
    21    32    33    1
    22    32    34    1
    23    34    35   ar
    24    35    36   ar
    25    36    37   ar
    26    37    38   ar
    27    38    39   ar
    28     4     5   ar
    29     5     6   ar
    30     9    10   ar
    31    10    11   ar
    32    11    12   ar
    33    12    13    1
    34    13    14   ar
    35    14    15   ar
    36    15    16   ar
    37    16    17    1
    38    16    18   ar
    39    12     7   ar
    40    18    13   ar
    41     6     2   ar
    42    31    26   ar
    43    39    34   ar
@<TRIPOS>MOLECULE
*****
 39 43 0 0 0
SMALL
GASTEIGER

@<TRIPOS>ATOM
      1 C         141.8237  140.2952  161.4109 C.3     1  UNL1        0.2138
      2 C         142.5155  138.0813  158.2987 C.ar    1  UNL1        0.1233
      3 C         141.7289  138.3904  159.5379 C.ar    1  UNL1        0.1181
      4 N         142.3055  139.6296  160.1559 N.ar    1  UNL1       -0.2208
      5 N         143.4485  140.0864  159.2986 N.ar    1  UNL1       -0.0633
      6 N         143.5783  139.1295  158.1508 N.ar    1  UNL1       -0.1287
      7 C         142.8720  134.5267  156.5701 C.ar    1  UNL1        0.1547
      8 C         143.1068  135.6813  157.4984 C.ar    1  UNL1        0.0400
      9 C         142.2806  136.9267  157.3703 C.ar    1  UNL1        0.0241
     10 C         141.2196  137.0175  156.3140 C.ar    1  UNL1        0.0033
     11 C         140.9848  135.8630  155.3857 C.ar    1  UNL1        0.0207
     12 C         141.8110  134.6176  155.5137 C.ar    1  UNL1        0.0994
     13 N         141.5761  133.4630  154.5853 N.ar    1  UNL1       -0.2839
     14 C         141.9555  133.4063  153.1352 C.ar    1  UNL1        0.1826
     15 N         141.5345  132.0707  152.5978 N.ar    1  UNL1       -0.2280
     16 C         140.8949  131.3018  153.7158 C.ar    1  UNL1        0.0786
     17 C         140.3290  129.9158  153.6219 C.3     1  UNL1        0.0538
     18 C         140.9207  132.1623  154.9442 C.ar    1  UNL1        0.0963
     19 C         144.6095  133.1037  157.8762 C.3     1  UNL1        0.2525
     20 O         143.6982  133.2813  156.6981 O.3     1  UNL1       -0.4700
     21 C         141.4140  139.4644  162.5907 C.2     1  UNL1        0.2510
     22 O         142.3025  138.3556  163.0719 O.2     1  UNL1       -0.2727
     23 N         140.1162  139.7422  163.2893 N.am    1  UNL1       -0.2737
     24 C         139.7066  138.9114  164.4692 C.3     1  UNL1        0.0982
     25 C         138.9615  137.6266  164.2593 C.3     1  UNL1        0.0264
     26 C         140.0420  139.3655  165.8588 C.ar    1  UNL1       -0.0043
     27 C         138.9573  139.5004  166.8861 C.ar    1  UNL1       -0.0027
     28 C         139.2928  139.9545  168.2758 C.ar    1  UNL1       -0.0003
     29 C         140.7129  140.2737  168.6382 C.ar    1  UNL1       -0.0000
     30 C         141.7976  140.1388  167.6109 C.ar    1  UNL1       -0.0003
     31 C         141.4621  139.6847  166.2212 C.ar    1  UNL1       -0.0027
     32 C         139.2278  140.8510  162.8081 C.3     1  UNL1        0.0982
     33 C         138.4006  140.6658  161.5706 C.3     1  UNL1        0.0264
     34 C         139.1667  142.1449  163.5643 C.ar    1  UNL1       -0.0043
     35 C         137.8403  142.7084  163.9805 C.ar    1  UNL1       -0.0027
     36 C         137.7792  144.0024  164.7367 C.ar    1  UNL1       -0.0003
     37 C         139.0445  144.7329  165.0768 C.ar    1  UNL1       -0.0000
     38 C         140.3708  144.1694  164.6605 C.ar    1  UNL1       -0.0003
     39 C         140.4319  142.8754  163.9043 C.ar    1  UNL1       -0.0027
@<TRIPOS>BOND
     1    19    20    1
     2    20     7    1
     3     7     8   ar
     4     8     9   ar
     5     9     2    1
     6     2     3   ar
     7     3     4   ar
     8     4     1    1
     9     1    21    1
    10    21    22    2
    11    21    23   am
    12    23    24    1
    13    24    25    1
    14    24    26    1
    15    26    27   ar
    16    27    28   ar
    17    28    29   ar
    18    29    30   ar
    19    30    31   ar
    20    23    32    1
    21    32    33    1
    22    32    34    1
    23    34    35   ar
    24    35    36   ar
    25    36    37   ar
    26    37    38   ar
    27    38    39   ar
    28     4     5   ar
    29     5     6   ar
    30     9    10   ar
    31    10    11   ar
    32    11    12   ar
    33    12    13    1
    34    13    14   ar
    35    14    15   ar
    36    15    16   ar
    37    16    17    1
    38    16    18   ar
    39    12     7   ar
    40    18    13   ar
    41     6     2   ar
    42    31    26   ar
    43    39    34   ar
@<TRIPOS>MOLECULE
*****
 39 43 0 0 0
SMALL
GASTEIGER

@<TRIPOS>ATOM
      1 C         138.2650  141.8200  163.7747 C.3     1  UNL1        0.2138
      2 C         140.1220  142.6417  160.4669 C.ar    1  UNL1        0.1233
      3 C         140.0556  141.9458  161.7940 C.ar    1  UNL1        0.1181
      4 N         138.7468  142.2976  162.4369 N.ar    1  UNL1       -0.2208
      5 N         138.0044  143.2111  161.5071 N.ar    1  UNL1       -0.0633
      6 N         138.8543  143.4237  160.2896 N.ar    1  UNL1       -0.1287
      7 C         142.7851  141.1758  157.9156 C.ar    1  UNL1        0.1547
      8 C         141.6503  141.2490  158.8936 C.ar    1  UNL1        0.0400
      9 C         141.2570  142.5685  159.4888 C.ar    1  UNL1        0.0241
     10 C         141.9985  143.8149  159.1058 C.ar    1  UNL1        0.0033
     11 C         143.1334  143.7416  158.1277 C.ar    1  UNL1        0.0207
     12 C         143.5267  142.4221  157.5326 C.ar    1  UNL1        0.0994
     13 N         144.6616  142.3489  156.5545 N.ar    1  UNL1       -0.2839
     14 C         144.5680  142.5846  155.0761 C.ar    1  UNL1        0.1826
     15 N         145.9379  142.4086  154.4910 N.ar    1  UNL1       -0.2280
     16 C         146.8782  142.0641  155.6078 C.ar    1  UNL1        0.0786
     17 C         148.3490  141.8024  155.4729 C.3     1  UNL1        0.0538
     18 C         146.0894  142.0272  156.8831 C.ar    1  UNL1        0.0963
     19 C         142.7812  138.5791  157.9994 C.3     1  UNL1        0.2525
     20 O         143.1784  139.8563  157.3204 O.3     1  UNL1       -0.4700
     21 C         139.0485  140.7868  164.5289 C.2     1  UNL1        0.2510
     22 O         138.7066  139.3333  164.3846 O.2     1  UNL1       -0.2727
     23 N         140.1737  141.2069  165.4273 N.am    1  UNL1       -0.2737
     24 C         140.9572  140.1738  166.1815 C.3     1  UNL1        0.0982
     25 C         141.8724  139.2412  165.4449 C.3     1  UNL1        0.0264
     26 C         140.8254  140.0733  167.6723 C.ar    1  UNL1       -0.0043
     27 C         142.0207  139.7255  168.5092 C.ar    1  UNL1       -0.0027
     28 C         141.8888  139.6250  169.9999 C.ar    1  UNL1       -0.0003
     29 C         140.5617  139.8723  170.6539 C.ar    1  UNL1       -0.0000
     30 C         139.3664  140.2201  169.8170 C.ar    1  UNL1       -0.0003
     31 C         139.4983  140.3206  168.3262 C.ar    1  UNL1       -0.0027
     32 C         140.5155  142.6604  165.5715 C.3     1  UNL1        0.0982
     33 C         139.7386  143.5229  166.5216 C.3     1  UNL1        0.0264
     34 C         141.6342  143.2514  164.7658 C.ar    1  UNL1       -0.0043
     35 C         141.3748  144.4283  163.8728 C.ar    1  UNL1       -0.0027
     36 C         142.4936  145.0193  163.0670 C.ar    1  UNL1       -0.0003
     37 C         143.8716  144.4332  163.1542 C.ar    1  UNL1       -0.0000
     38 C         144.1309  143.2563  164.0472 C.ar    1  UNL1       -0.0003
     39 C         143.0122  142.6653  164.8530 C.ar    1  UNL1       -0.0027
@<TRIPOS>BOND
     1    19    20    1
     2    20     7    1
     3     7     8   ar
     4     8     9   ar
     5     9     2    1
     6     2     3   ar
     7     3     4   ar
     8     4     1    1
     9     1    21    1
    10    21    22    2
    11    21    23   am
    12    23    24    1
    13    24    25    1
    14    24    26    1
    15    26    27   ar
    16    27    28   ar
    17    28    29   ar
    18    29    30   ar
    19    30    31   ar
    20    23    32    1
    21    32    33    1
    22    32    34    1
    23    34    35   ar
    24    35    36   ar
    25    36    37   ar
    26    37    38   ar
    27    38    39   ar
    28     4     5   ar
    29     5     6   ar
    30     9    10   ar
    31    10    11   ar
    32    11    12   ar
    33    12    13    1
    34    13    14   ar
    35    14    15   ar
    36    15    16   ar
    37    16    17    1
    38    16    18   ar
    39    12     7   ar
    40    18    13   ar
    41     6     2   ar
    42    31    26   ar
    43    39    34   ar
@<TRIPOS>MOLECULE
*****
 39 43 0 0 0
SMALL
GASTEIGER

@<TRIPOS>ATOM
      1 C         140.8774  144.6404  160.9957 C.3     1  UNL1        0.2138
      2 C         142.5254  141.5387  159.3438 C.ar    1  UNL1        0.1233
      3 C         141.3095  142.2885  159.8012 C.ar    1  UNL1        0.1181
      4 N         141.7641  143.5822  160.4091 N.ar    1  UNL1       -0.2208
      5 N         143.2611  143.6320  160.3274 N.ar    1  UNL1       -0.0633
      6 N         143.7316  142.3691  159.6690 N.ar    1  UNL1       -0.1287
      7 C         142.4929  138.7542  156.5162 C.ar    1  UNL1        0.1547
      8 C         142.4845  140.0983  157.1819 C.ar    1  UNL1        0.0400
      9 C         142.5338  140.1945  158.6780 C.ar    1  UNL1        0.0241
     10 C         142.5915  138.9467  159.5083 C.ar    1  UNL1        0.0033
     11 C         142.5999  137.6026  158.8426 C.ar    1  UNL1        0.0207
     12 C         142.5506  137.5063  157.3465 C.ar    1  UNL1        0.0994
     13 N         142.5590  136.1621  156.6807 N.ar    1  UNL1       -0.2839
     14 C         141.4749  135.6042  155.8070 C.ar    1  UNL1        0.1826
     15 N         141.8989  134.2372  155.3581 N.ar    1  UNL1       -0.2280
     16 C         143.2450  133.9502  155.9545 C.ar    1  UNL1        0.0786
     17 C         144.0430  132.6941  155.7664 C.3     1  UNL1        0.0538
     18 C         143.6529  135.1399  156.7719 C.ar    1  UNL1        0.0963
     19 C         143.7083  138.7594  154.2199 C.3     1  UNL1        0.2525
     20 O         142.4436  138.6579  155.0201 O.3     1  UNL1       -0.4700
     21 C         139.9463  144.2995  162.1212 C.2     1  UNL1        0.2510
     22 O         138.4689  144.2190  161.8742 O.2     1  UNL1       -0.2727
     23 N         140.4924  144.0389  163.4937 N.am    1  UNL1       -0.2737
     24 C         139.5613  143.6980  164.6192 C.3     1  UNL1        0.0982
     25 C         138.8493  144.7904  165.3607 C.3     1  UNL1        0.0264
     26 C         139.3421  142.2646  165.0032 C.ar    1  UNL1       -0.0043
     27 C         138.3472  141.4306  164.2519 C.ar    1  UNL1       -0.0027
     28 C         138.1280  139.9972  164.6359 C.ar    1  UNL1       -0.0003
     29 C         138.9039  139.3979  165.7712 C.ar    1  UNL1       -0.0000
     30 C         139.8988  140.2320  166.5225 C.ar    1  UNL1       -0.0003
     31 C         140.1180  141.6653  166.1385 C.ar    1  UNL1       -0.0027
     32 C         141.9698  144.1194  163.7407 C.3     1  UNL1        0.0982
     33 C         142.6210  145.4517  163.9663 C.3     1  UNL1        0.0264
     34 C         142.7959  142.8676  163.7620 C.ar    1  UNL1       -0.0043
     35 C         144.1878  142.8970  164.3203 C.ar    1  UNL1       -0.0027
     36 C         145.0139  141.6452  164.3417 C.ar    1  UNL1       -0.0003
     37 C         144.4481  140.3640  163.8047 C.ar    1  UNL1       -0.0000
     38 C         143.0562  140.3345  163.2464 C.ar    1  UNL1       -0.0003
     39 C         142.2301  141.5864  163.2251 C.ar    1  UNL1       -0.0027
@<TRIPOS>BOND
     1    19    20    1
     2    20     7    1
     3     7     8   ar
     4     8     9   ar
     5     9     2    1
     6     2     3   ar
     7     3     4   ar
     8     4     1    1
     9     1    21    1
    10    21    22    2
    11    21    23   am
    12    23    24    1
    13    24    25    1
    14    24    26    1
    15    26    27   ar
    16    27    28   ar
    17    28    29   ar
    18    29    30   ar
    19    30    31   ar
    20    23    32    1
    21    32    33    1
    22    32    34    1
    23    34    35   ar
    24    35    36   ar
    25    36    37   ar
    26    37    38   ar
    27    38    39   ar
    28     4     5   ar
    29     5     6   ar
    30     9    10   ar
    31    10    11   ar
    32    11    12   ar
    33    12    13    1
    34    13    14   ar
    35    14    15   ar
    36    15    16   ar
    37    16    17    1
    38    16    18   ar
    39    12     7   ar
    40    18    13   ar
    41     6     2   ar
    42    31    26   ar
    43    39    34   ar
