@<TRIPOS>MOLECULE
*****
 21 23 0 0 0
SMALL
GASTEIGER

@<TRIPOS>ATOM
      1 C         139.2879  140.8742  165.8765 C.2     1  UNL1       -0.0242
      2 C         140.1839  141.3986  166.9592 C.2     1  UNL1       -0.0420
      3 C         140.3113  142.8821  166.7774 C.3     1  UNL1        0.0480
      4 C         139.4940  143.2745  165.5824 C.ar    1  UNL1       -0.0184
      5 C         139.2441  144.6015  164.9293 C.ar    1  UNL1       -0.0040
      6 C         138.3616  144.6876  163.7194 C.ar    1  UNL1       -0.0003
      7 C         137.7291  143.4467  163.1626 C.ar    1  UNL1       -0.0000
      8 C         137.9791  142.1197  163.8157 C.ar    1  UNL1       -0.0006
      9 C         138.8615  142.0336  165.0256 C.ar    1  UNL1       -0.0078
     10 C         137.9059  138.8017  166.6147 C.3     1  UNL1        0.0116
     11 C         138.8884  139.4419  165.6793 C.3     1  UNL1        0.0681
     12 C         139.4712  138.6498  164.5467 C.ar    1  UNL1        0.0919
     13 N         138.9516  138.6089  163.1402 N.ar    1  UNL1       -0.2408
     14 C         139.8353  137.6932  162.3460 C.ar    1  UNL1        0.1061
     15 C         140.9010  137.1682  163.2616 C.ar    1  UNL1        0.0572
     16 S         140.6760  137.7594  164.6218 S.2     1  UNL1       -0.0699
     17 C         140.8377  140.5827  168.0347 C.3     1  UNL1        0.0394
     18 C         140.2445  140.5440  169.4119 C.3     1  UNL1        0.0765
     19 N         140.6271  141.5841  170.4228 N.3     1  UNL1       -0.2700
     20 C         139.7954  142.8231  170.5756 C.3     1  UNL1        0.0897
     21 C         141.8412  141.3852  171.2808 C.3     1  UNL1        0.0897
@<TRIPOS>BOND
     1    11    10    1
     2    11     1    1
     3     1     2    2
     4     2    17    1
     5    17    18    1
     6    18    19    1
     7    19    20    1
     8    19    21    1
     9     2     3    1
    10     3     4    1
    11     4     5   ar
    12     5     6   ar
    13     6     7   ar
    14     7     8   ar
    15     8     9   ar
    16    11    12    1
    17    12    13   ar
    18    13    14   ar
    19    14    15   ar
    20    15    16   ar
    21     9     1    1
    22    16    12   ar
    23     9     4   ar
@<TRIPOS>MOLECULE
*****
 21 23 0 0 0
SMALL
GASTEIGER

@<TRIPOS>ATOM
      1 C         139.7040  140.4683  165.6894 C.2     1  UNL1       -0.0242
      2 C         138.8436  139.5901  164.8300 C.2     1  UNL1       -0.0420
      3 C         137.9517  140.4746  164.0102 C.3     1  UNL1        0.0480
      4 C         138.2608  141.8994  164.3628 C.ar    1  UNL1       -0.0184
      5 C         137.6961  143.1998  163.8730 C.ar    1  UNL1       -0.0040
      6 C         138.2144  144.4963  164.4210 C.ar    1  UNL1       -0.0003
      7 C         139.2974  144.4924  165.4588 C.ar    1  UNL1       -0.0000
      8 C         139.8621  143.1920  165.9487 C.ar    1  UNL1       -0.0006
      9 C         139.3438  141.8955  165.4006 C.ar    1  UNL1       -0.0078
     10 C         142.0056  139.3627  166.1696 C.3     1  UNL1        0.0116
     11 C         140.7423  140.0013  166.6660 C.3     1  UNL1        0.0681
     12 C         140.5174  140.1727  168.1391 C.ar    1  UNL1        0.0919
     13 N         139.2488  139.8672  168.8788 N.ar    1  UNL1       -0.2408
     14 C         139.4690  140.1855  170.3280 C.ar    1  UNL1        0.1061
     15 C         140.8737  140.6877  170.4840 C.ar    1  UNL1        0.0572
     16 S         141.5217  140.6799  169.1311 S.2     1  UNL1       -0.0699
     17 C         138.8704  138.0907  164.7964 C.3     1  UNL1        0.0394
     18 C         138.9060  137.3705  163.4811 C.3     1  UNL1        0.0765
     19 N         139.9361  137.7357  162.4537 N.3     1  UNL1       -0.2700
     20 C         139.5071  138.2498  161.1114 C.3     1  UNL1        0.0897
     21 C         141.3951  137.5869  162.7686 C.3     1  UNL1        0.0897
@<TRIPOS>BOND
     1    11    10    1
     2    11     1    1
     3     1     2    2
     4     2    17    1
     5    17    18    1
     6    18    19    1
     7    19    20    1
     8    19    21    1
     9     2     3    1
    10     3     4    1
    11     4     5   ar
    12     5     6   ar
    13     6     7   ar
    14     7     8   ar
    15     8     9   ar
    16    11    12    1
    17    12    13   ar
    18    13    14   ar
    19    14    15   ar
    20    15    16   ar
    21     9     1    1
    22    16    12   ar
    23     9     4   ar
@<TRIPOS>MOLECULE
*****
 21 23 0 0 0
SMALL
GASTEIGER

@<TRIPOS>ATOM
      1 C         139.5822  140.6437  166.5880 C.2     1  UNL1       -0.0242
      2 C         139.7900  141.8717  165.7521 C.2     1  UNL1       -0.0420
      3 C         140.3530  142.9445  166.6365 C.3     1  UNL1        0.0480
      4 C         140.4932  142.3795  168.0189 C.ar    1  UNL1       -0.0184
      5 C         140.9931  142.9761  169.3011 C.ar    1  UNL1       -0.0040
      6 C         141.0166  142.1507  170.5533 C.ar    1  UNL1       -0.0003
      7 C         140.5402  140.7287  170.5233 C.ar    1  UNL1       -0.0000
      8 C         140.0403  140.1321  169.2411 C.ar    1  UNL1       -0.0006
      9 C         140.0168  140.9574  167.9889 C.ar    1  UNL1       -0.0078
     10 C         137.8365  138.7287  166.7766 C.3     1  UNL1        0.0116
     11 C         139.0357  139.3320  166.1073 C.3     1  UNL1        0.0681
     12 C         139.6884  138.6237  164.9574 C.ar    1  UNL1        0.0919
     13 N         139.0451  138.2996  163.6418 N.ar    1  UNL1       -0.2408
     14 C         140.0581  137.5907  162.7926 C.ar    1  UNL1        0.1061
     15 C         141.3275  137.4767  163.5833 C.ar    1  UNL1        0.0572
     16 S         141.0991  138.1152  164.9214 S.2     1  UNL1       -0.0699
     17 C         139.4878  142.0038  164.2888 C.3     1  UNL1        0.0394
     18 C         140.0702  143.1405  163.5023 C.3     1  UNL1        0.0765
     19 N         139.1911  144.2696  163.0526 N.3     1  UNL1       -0.2700
     20 C         139.7987  145.4892  162.4254 C.3     1  UNL1        0.0897
     21 C         137.7044  144.1791  163.2301 C.3     1  UNL1        0.0897
@<TRIPOS>BOND
     1    11    10    1
     2    11     1    1
     3     1     2    2
     4     2    17    1
     5    17    18    1
     6    18    19    1
     7    19    20    1
     8    19    21    1
     9     2     3    1
    10     3     4    1
    11     4     5   ar
    12     5     6   ar
    13     6     7   ar
    14     7     8   ar
    15     8     9   ar
    16    11    12    1
    17    12    13   ar
    18    13    14   ar
    19    14    15   ar
    20    15    16   ar
    21     9     1    1
    22    16    12   ar
    23     9     4   ar
@<TRIPOS>MOLECULE
*****
 21 23 0 0 0
SMALL
GASTEIGER

@<TRIPOS>ATOM
      1 C         139.8026  140.8696  166.3520 C.2     1  UNL1       -0.0242
      2 C         138.9405  139.6689  166.6069 C.2     1  UNL1       -0.0420
      3 C         138.7897  139.5132  168.0912 C.3     1  UNL1        0.0480
      4 C         139.5587  140.6177  168.7536 C.ar    1  UNL1       -0.0184
      5 C         139.7698  140.9683  170.1967 C.ar    1  UNL1       -0.0040
      6 C         140.6069  142.1572  170.5649 C.ar    1  UNL1       -0.0003
      7 C         141.2329  142.9956  169.4900 C.ar    1  UNL1       -0.0000
      8 C         141.0218  142.6450  168.0470 C.ar    1  UNL1       -0.0006
      9 C         140.1848  141.4560  167.6788 C.ar    1  UNL1       -0.0078
     10 C         141.3852  140.7904  164.2930 C.3     1  UNL1        0.0116
     11 C         140.2110  141.3923  165.0066 C.3     1  UNL1        0.0681
     12 C         139.4454  142.5168  164.3748 C.ar    1  UNL1        0.0919
     13 N         138.2136  142.3795  163.5300 N.ar    1  UNL1       -0.2408
     14 C         137.7841  143.7539  163.1100 C.ar    1  UNL1        0.1061
     15 C         138.7504  144.7407  163.6951 C.ar    1  UNL1        0.0572
     16 S         139.7772  143.9760  164.4769 S.2     1  UNL1       -0.0699
     17 C         138.3353  138.7800  165.5611 C.3     1  UNL1        0.0394
     18 C         139.1188  137.6234  165.0151 C.3     1  UNL1        0.0765
     19 N         139.5592  137.6261  163.5812 N.3     1  UNL1       -0.2700
     20 C         138.5918  138.0077  162.5002 C.3     1  UNL1        0.0897
     21 C         140.9670  137.2471  163.2283 C.3     1  UNL1        0.0897
@<TRIPOS>BOND
     1    11    10    1
     2    11     1    1
     3     1     2    2
     4     2    17    1
     5    17    18    1
     6    18    19    1
     7    19    20    1
     8    19    21    1
     9     2     3    1
    10     3     4    1
    11     4     5   ar
    12     5     6   ar
    13     6     7   ar
    14     7     8   ar
    15     8     9   ar
    16    11    12    1
    17    12    13   ar
    18    13    14   ar
    19    14    15   ar
    20    15    16   ar
    21     9     1    1
    22    16    12   ar
    23     9     4   ar
@<TRIPOS>MOLECULE
*****
 21 23 0 0 0
SMALL
GASTEIGER

@<TRIPOS>ATOM
      1 C         140.1521  142.3124  166.0184 C.2     1  UNL1       -0.0242
      2 C         139.9013  140.9500  165.4433 C.2     1  UNL1       -0.0420
      3 C         139.7733  139.9825  166.5824 C.3     1  UNL1        0.0480
      4 C         139.9450  140.7469  167.8615 C.ar    1  UNL1       -0.0184
      5 C         139.9184  140.3179  169.2985 C.ar    1  UNL1       -0.0040
      6 C         140.1259  141.3288  170.3870 C.ar    1  UNL1       -0.0003
      7 C         140.3600  142.7689  170.0384 C.ar    1  UNL1       -0.0000
      8 C         140.3866  143.1979  168.6014 C.ar    1  UNL1       -0.0006
      9 C         140.1791  142.1870  167.5129 C.ar    1  UNL1       -0.0078
     10 C         139.1996  144.5352  165.0684 C.3     1  UNL1        0.0116
     11 C         140.3425  143.5782  165.2363 C.3     1  UNL1        0.0681
     12 C         141.6756  143.8871  164.6222 C.ar    1  UNL1        0.0919
     13 N         142.9272  143.0750  164.7770 N.ar    1  UNL1       -0.2408
     14 C         144.0163  143.7484  163.9959 C.ar    1  UNL1        0.1061
     15 C         143.4380  144.9767  163.3584 C.ar    1  UNL1        0.0572
     16 S         141.9913  145.0625  163.7455 S.2     1  UNL1       -0.0699
     17 C         139.7968  140.6140  163.9851 C.3     1  UNL1        0.0394
     18 C         138.4851  140.1683  163.4103 C.3     1  UNL1        0.0765
     19 N         138.3562  138.8008  162.8076 N.3     1  UNL1       -0.2700
     20 C         138.9896  137.6207  163.4831 C.3     1  UNL1        0.0897
     21 C         137.5940  138.6133  161.5294 C.3     1  UNL1        0.0897
@<TRIPOS>BOND
     1    11    10    1
     2    11     1    1
     3     1     2    2
     4     2    17    1
     5    17    18    1
     6    18    19    1
     7    19    20    1
     8    19    21    1
     9     2     3    1
    10     3     4    1
    11     4     5   ar
    12     5     6   ar
    13     6     7   ar
    14     7     8   ar
    15     8     9   ar
    16    11    12    1
    17    12    13   ar
    18    13    14   ar
    19    14    15   ar
    20    15    16   ar
    21     9     1    1
    22    16    12   ar
    23     9     4   ar
@<TRIPOS>MOLECULE
*****
 21 23 0 0 0
SMALL
GASTEIGER

@<TRIPOS>ATOM
      1 C         142.3210  140.5359  165.4717 C.2     1  UNL1       -0.0242
      2 C         143.2311  139.6164  164.7125 C.2     1  UNL1       -0.0420
      3 C         142.4575  138.3779  164.3694 C.3     1  UNL1        0.0480
      4 C         141.0694  138.5319  164.9166 C.ar    1  UNL1       -0.0184
      5 C         139.8713  137.6300  164.8825 C.ar    1  UNL1       -0.0040
      6 C         138.5889  138.0619  165.5297 C.ar    1  UNL1       -0.0003
      7 C         138.5045  139.3956  166.2109 C.ar    1  UNL1       -0.0000
      8 C         139.7026  140.2975  166.2450 C.ar    1  UNL1       -0.0006
      9 C         140.9850  139.8656  165.5978 C.ar    1  UNL1       -0.0078
     10 C         142.9675  142.0615  167.4729 C.3     1  UNL1        0.0116
     11 C         142.6833  141.8882  166.0102 C.3     1  UNL1        0.0681
     12 C         142.7615  143.0671  165.0862 C.ar    1  UNL1        0.0919
     13 N         141.6061  143.7115  164.3792 N.ar    1  UNL1       -0.2408
     14 C         142.1394  144.8514  163.5630 C.ar    1  UNL1        0.1061
     15 C         143.6243  144.9116  163.7655 C.ar    1  UNL1        0.0572
     16 S         144.0089  143.8088  164.7069 S.2     1  UNL1       -0.0699
     17 C         144.6632  139.8878  164.3585 C.3     1  UNL1        0.0394
     18 C         144.9965  140.6340  163.1007 C.3     1  UNL1        0.0765
     19 N         144.0853  140.5457  161.9125 N.3     1  UNL1       -0.2700
     20 C         143.1647  141.6844  161.5870 C.3     1  UNL1        0.0897
     21 C         144.0947  139.3187  161.0497 C.3     1  UNL1        0.0897
@<TRIPOS>BOND
     1    11    10    1
     2    11     1    1
     3     1     2    2
     4     2    17    1
     5    17    18    1
     6    18    19    1
     7    19    20    1
     8    19    21    1
     9     2     3    1
    10     3     4    1
    11     4     5   ar
    12     5     6   ar
    13     6     7   ar
    14     7     8   ar
    15     8     9   ar
    16    11    12    1
    17    12    13   ar
    18    13    14   ar
    19    14    15   ar
    20    15    16   ar
    21     9     1    1
    22    16    12   ar
    23     9     4   ar
@<TRIPOS>MOLECULE
*****
 21 23 0 0 0
SMALL
GASTEIGER

@<TRIPOS>ATOM
      1 C         141.3973  141.3065  165.6657 C.2     1  UNL1       -0.0242
      2 C         140.9962  139.8612  165.6820 C.2     1  UNL1       -0.0420
      3 C         142.1419  139.0561  165.1441 C.3     1  UNL1        0.0480
      4 C         143.2510  140.0039  164.7953 C.ar    1  UNL1       -0.0184
      5 C         144.6205  139.7801  164.2259 C.ar    1  UNL1       -0.0040
      6 C         145.5299  140.9471  163.9788 C.ar    1  UNL1       -0.0003
      7 C         145.0697  142.3379  164.3012 C.ar    1  UNL1       -0.0000
      8 C         143.7002  142.5617  164.8707 C.ar    1  UNL1       -0.0006
      9 C         142.7909  141.3947  165.1177 C.ar    1  UNL1       -0.0078
     10 C         140.4813  142.8123  167.5746 C.3     1  UNL1        0.0116
     11 C         140.5531  142.4609  166.1180 C.3     1  UNL1        0.0681
     12 C         139.7807  143.2640  165.1139 C.ar    1  UNL1        0.0919
     13 N         138.3295  143.0924  164.7758 N.ar    1  UNL1       -0.2408
     14 C         137.9758  144.1021  163.7245 C.ar    1  UNL1        0.1061
     15 C         139.2084  144.8979  163.4128 C.ar    1  UNL1        0.0572
     16 S         140.3240  144.3799  164.2715 S.2     1  UNL1       -0.0699
     17 C         139.6805  139.3166  166.1534 C.3     1  UNL1        0.0394
     18 C         138.4560  139.4710  165.3008 C.3     1  UNL1        0.0765
     19 N         138.5011  139.0971  163.8489 N.3     1  UNL1       -0.2700
     20 C         138.0859  140.0913  162.8052 C.3     1  UNL1        0.0897
     21 C         138.9614  137.7292  163.4406 C.3     1  UNL1        0.0897
@<TRIPOS>BOND
     1    11    10    1
     2    11     1    1
     3     1     2    2
     4     2    17    1
     5    17    18    1
     6    18    19    1
     7    19    20    1
     8    19    21    1
     9     2     3    1
    10     3     4    1
    11     4     5   ar
    12     5     6   ar
    13     6     7   ar
    14     7     8   ar
    15     8     9   ar
    16    11    12    1
    17    12    13   ar
    18    13    14   ar
    19    14    15   ar
    20    15    16   ar
    21     9     1    1
    22    16    12   ar
    23     9     4   ar
@<TRIPOS>MOLECULE
*****
 21 23 0 0 0
SMALL
GASTEIGER

@<TRIPOS>ATOM
      1 C         142.0698  139.8714  165.7765 C.2     1  UNL1       -0.0242
      2 C         142.3150  138.7155  164.8525 C.2     1  UNL1       -0.0420
      3 C         143.4527  139.0804  163.9456 C.3     1  UNL1        0.0480
      4 C         143.9106  140.4617  164.3091 C.ar    1  UNL1       -0.0184
      5 C         144.9955  141.3376  163.7559 C.ar    1  UNL1       -0.0040
      6 C         145.2256  142.7023  164.3343 C.ar    1  UNL1       -0.0003
      7 C         144.3709  143.1911  165.4659 C.ar    1  UNL1       -0.0000
      8 C         143.2861  142.3153  166.0191 C.ar    1  UNL1       -0.0006
      9 C         143.0560  140.9506  165.4407 C.ar    1  UNL1       -0.0078
     10 C         139.5687  139.9287  166.4778 C.3     1  UNL1        0.0116
     11 C         141.0223  139.9366  166.8482 C.3     1  UNL1        0.0681
     12 C         141.4283  140.0097  168.2903 C.ar    1  UNL1        0.0919
     13 N         142.7632  139.6185  168.8515 N.ar    1  UNL1       -0.2408
     14 C         142.7305  139.8540  170.3325 C.ar    1  UNL1        0.1061
     15 C         141.3754  140.3907  170.6867 C.ar    1  UNL1        0.0572
     16 S         140.5705  140.4870  169.4246 S.2     1  UNL1       -0.0699
     17 C         141.5558  137.4219  164.8379 C.3     1  UNL1        0.0394
     18 C         141.0264  136.8775  163.5444 C.3     1  UNL1        0.0765
     19 N         140.1414  137.7256  162.6799 N.3     1  UNL1       -0.2700
     20 C         140.6545  138.2568  161.3743 C.3     1  UNL1        0.0897
     21 C         138.7432  138.0427  163.1211 C.3     1  UNL1        0.0897
@<TRIPOS>BOND
     1    11    10    1
     2    11     1    1
     3     1     2    2
     4     2    17    1
     5    17    18    1
     6    18    19    1
     7    19    20    1
     8    19    21    1
     9     2     3    1
    10     3     4    1
    11     4     5   ar
    12     5     6   ar
    13     6     7   ar
    14     7     8   ar
    15     8     9   ar
    16    11    12    1
    17    12    13   ar
    18    13    14   ar
    19    14    15   ar
    20    15    16   ar
    21     9     1    1
    22    16    12   ar
    23     9     4   ar
@<TRIPOS>MOLECULE
*****
 21 23 0 0 0
SMALL
GASTEIGER

@<TRIPOS>ATOM
      1 C         141.0193  141.4674  166.0214 C.2     1  UNL1       -0.0242
      2 C         140.6105  140.1013  165.5558 C.2     1  UNL1       -0.0420
      3 C         139.3082  140.2319  164.8230 C.3     1  UNL1        0.0480
      4 C         138.9122  141.6786  164.8356 C.ar    1  UNL1       -0.0184
      5 C         137.7252  142.3992  164.2684 C.ar    1  UNL1       -0.0040
      6 C         137.5958  143.8835  164.4419 C.ar    1  UNL1       -0.0003
      7 C         138.6533  144.6471  165.1825 C.ar    1  UNL1       -0.0000
      8 C         139.8402  143.9265  165.7497 C.ar    1  UNL1       -0.0006
      9 C         139.9697  142.4422  165.5763 C.ar    1  UNL1       -0.0078
     10 C         143.4207  142.4554  166.1079 C.3     1  UNL1        0.0116
     11 C         142.2599  141.8003  166.7960 C.3     1  UNL1        0.0681
     12 C         142.3398  141.4781  168.2588 C.ar    1  UNL1        0.0919
     13 N         142.9181  140.2298  168.8564 N.ar    1  UNL1       -0.2408
     14 C         142.7912  140.3279  170.3478 C.ar    1  UNL1        0.1061
     15 C         142.1344  141.6369  170.6720 C.ar    1  UNL1        0.0572
     16 S         141.8554  142.3478  169.3809 S.2     1  UNL1       -0.0699
     17 C         141.3705  138.8283  165.7832 C.3     1  UNL1        0.0394
     18 C         142.5024  138.4575  164.8714 C.3     1  UNL1        0.0765
     19 N         142.2201  138.0217  163.4642 N.3     1  UNL1       -0.2700
     20 C         143.1935  138.3445  162.3695 C.3     1  UNL1        0.0897
     21 C         140.9644  137.2630  163.1517 C.3     1  UNL1        0.0897
@<TRIPOS>BOND
     1    11    10    1
     2    11     1    1
     3     1     2    2
     4     2    17    1
     5    17    18    1
     6    18    19    1
     7    19    20    1
     8    19    21    1
     9     2     3    1
    10     3     4    1
    11     4     5   ar
    12     5     6   ar
    13     6     7   ar
    14     7     8   ar
    15     8     9   ar
    16    11    12    1
    17    12    13   ar
    18    13    14   ar
    19    14    15   ar
    20    15    16   ar
    21     9     1    1
    22    16    12   ar
    23     9     4   ar
