@<TRIPOS>MOLECULE
*****
 33 35 0 0 0
SMALL
GASTEIGER

@<TRIPOS>ATOM
      1 C         138.4703  142.1805  160.4909 C.ar    1  UNL1        0.1432
      2 C         138.8997  141.7954  159.1063 C.ar    1  UNL1        0.0384
      3 C         139.8486  142.6722  158.3442 C.ar    1  UNL1        0.0215
      4 C         140.3681  143.9341  158.9668 C.ar    1  UNL1        0.1061
      5 C         139.9387  144.3192  160.3514 C.ar    1  UNL1        0.0259
      6 C         138.9898  143.4424  161.1135 C.ar    1  UNL1        0.0887
      7 C         138.5604  143.8276  162.4982 C.2     1  UNL1        0.2520
      8 O         137.4487  144.8159  162.6910 O.2     1  UNL1       -0.2698
      9 N         139.2427  143.2243  163.6900 N.am    1  UNL1       -0.2752
     10 C         140.3544  142.2369  163.8888 C.3     1  UNL1        0.0997
     11 C         140.2077  142.3711  165.3755 C.3     1  UNL1        0.0620
     12 C         139.0961  143.3584  165.1768 C.3     1  UNL1        0.0997
     13 C         140.8900  141.7678  166.5674 C.ar    1  UNL1       -0.0192
     14 C         142.2456  142.2575  166.9831 C.ar    1  UNL1       -0.0042
     15 C         142.9279  141.6542  168.1749 C.ar    1  UNL1        0.0035
     16 C         142.2547  140.5612  168.9510 C.ar    1  UNL1        0.0714
     17 C         140.8992  140.0717  168.5353 C.ar    1  UNL1        0.0035
     18 C         140.2168  140.6749  167.3435 C.ar    1  UNL1       -0.0042
     19 C         142.9370  139.9580  170.1429 C.3     1  UNL1        0.4186
     20 F         143.6193  139.3547  171.3347 F       1  UNL1       -0.1659
     21 F         142.0656  138.7426  170.0265 F       1  UNL1       -0.1659
     22 F         143.8084  141.1734  170.2592 F       1  UNL1       -0.1659
     23 S         141.3170  144.8110  158.2047 S.O2    1  UNL1        0.0105
     24 C         142.2659  145.6878  157.4426 C.3     1  UNL1        0.1816
     25 O         140.1822  145.2996  157.3540 O.2     1  UNL1       -0.1686
     26 O         142.4517  144.3223  159.0553 O.2     1  UNL1       -0.1686
     27 O         137.5214  141.3036  161.2530 O.3     1  UNL1       -0.4702
     28 C         138.5633  138.9294  161.0872 C.3     1  UNL1        0.0566
     29 C         138.0226  140.0557  161.9174 C.3     1  UNL1        0.2599
     30 C         137.9831  139.9340  163.4120 C.3     1  UNL1        0.4340
     31 F         137.9437  139.8123  164.9065 F       1  UNL1       -0.1664
     32 F         136.9477  141.0175  163.4729 F       1  UNL1       -0.1664
     33 F         139.0186  138.8505  163.3511 F       1  UNL1       -0.1664
@<TRIPOS>BOND
     1    29    28    1
     2    29    27    1
     3    27     1    1
     4     1     2   ar
     5     2     3   ar
     6     3     4   ar
     7     4    23    1
     8    23    24    1
     9    23    25    2
    10    23    26    2
    11     4     5   ar
    12     5     6   ar
    13     6     7    1
    14     7     8    2
    15     7     9   am
    16     9    10    1
    17    10    11    1
    18    11    13    1
    19    13    14   ar
    20    14    15   ar
    21    15    16   ar
    22    16    19    1
    23    19    20    1
    24    19    21    1
    25    19    22    1
    26    16    17   ar
    27    17    18   ar
    28    11    12    1
    29    29    30    1
    30    30    31    1
    31    30    32    1
    32    30    33    1
    33     6     1   ar
    34    12     9    1
    35    18    13   ar
@<TRIPOS>MOLECULE
*****
 33 35 0 0 0
SMALL
GASTEIGER

@<TRIPOS>ATOM
      1 C         142.5161  143.1604  159.9383 C.ar    1  UNL1        0.1432
      2 C         143.6826  142.7490  159.0899 C.ar    1  UNL1        0.0384
      3 C         143.6105  141.4924  158.2740 C.ar    1  UNL1        0.0215
      4 C         142.3719  140.6471  158.3065 C.ar    1  UNL1        0.1061
      5 C         141.2053  141.0584  159.1549 C.ar    1  UNL1        0.0259
      6 C         141.2774  142.3151  159.9708 C.ar    1  UNL1        0.0887
      7 C         140.1107  142.7264  160.8192 C.2     1  UNL1        0.2520
      8 O         139.0149  143.5655  160.2317 O.2     1  UNL1       -0.2698
      9 N         140.0399  142.2987  162.2552 N.am    1  UNL1       -0.2752
     10 C         140.9135  141.4858  163.1641 C.3     1  UNL1        0.0997
     11 C         139.9397  141.6939  164.2860 C.3     1  UNL1        0.0620
     12 C         139.0662  142.5067  163.3771 C.3     1  UNL1        0.0997
     13 C         139.8689  141.2661  165.7220 C.ar    1  UNL1       -0.0192
     14 C         139.1087  140.0293  166.0995 C.ar    1  UNL1       -0.0042
     15 C         139.0379  139.6016  167.5355 C.ar    1  UNL1        0.0035
     16 C         139.7273  140.4107  168.5939 C.ar    1  UNL1        0.0714
     17 C         140.4874  141.6474  168.2163 C.ar    1  UNL1        0.0035
     18 C         140.5583  142.0752  166.7804 C.ar    1  UNL1       -0.0042
     19 C         139.6565  139.9830  170.0299 C.3     1  UNL1        0.4186
     20 F         139.5857  139.5553  171.4659 F       1  UNL1       -0.1659
     21 F         141.0802  139.5160  169.9610 F       1  UNL1       -0.1659
     22 F         138.2327  140.4500  170.0988 F       1  UNL1       -0.1659
     23 S         142.2998  139.3904  157.4907 S.O2    1  UNL1        0.0105
     24 C         142.2277  138.1338  156.6748 C.3     1  UNL1        0.1816
     25 O         141.0209  139.8676  156.8688 O.2     1  UNL1       -0.1686
     26 O         143.5787  138.9133  158.1126 O.2     1  UNL1       -0.1686
     27 O         142.5882  144.4170  160.7542 O.3     1  UNL1       -0.4702
     28 C         144.3910  143.8357  162.5323 C.3     1  UNL1        0.0566
     29 C         143.0274  144.3567  162.1871 C.3     1  UNL1        0.2599
     30 C         142.1030  144.8175  163.2750 C.3     1  UNL1        0.4340
     31 F         141.1787  145.2782  164.3627 F       1  UNL1       -0.1664
     32 F         142.9623  144.1319  164.2955 F       1  UNL1       -0.1664
     33 F         141.2438  145.5030  162.2544 F       1  UNL1       -0.1664
@<TRIPOS>BOND
     1    29    28    1
     2    29    27    1
     3    27     1    1
     4     1     2   ar
     5     2     3   ar
     6     3     4   ar
     7     4    23    1
     8    23    24    1
     9    23    25    2
    10    23    26    2
    11     4     5   ar
    12     5     6   ar
    13     6     7    1
    14     7     8    2
    15     7     9   am
    16     9    10    1
    17    10    11    1
    18    11    13    1
    19    13    14   ar
    20    14    15   ar
    21    15    16   ar
    22    16    19    1
    23    19    20    1
    24    19    21    1
    25    19    22    1
    26    16    17   ar
    27    17    18   ar
    28    11    12    1
    29    29    30    1
    30    30    31    1
    31    30    32    1
    32    30    33    1
    33     6     1   ar
    34    12     9    1
    35    18    13   ar
@<TRIPOS>MOLECULE
*****
 33 35 0 0 0
SMALL
GASTEIGER

@<TRIPOS>ATOM
      1 C         140.8690  139.9794  166.9204 C.ar    1  UNL1        0.1432
      2 C         139.9638  140.7792  167.8097 C.ar    1  UNL1        0.0384
      3 C         140.5468  141.6922  168.8472 C.ar    1  UNL1        0.0215
      4 C         142.0351  141.8055  168.9955 C.ar    1  UNL1        0.1061
      5 C         142.9404  141.0058  168.1062 C.ar    1  UNL1        0.0259
      6 C         142.3574  140.0927  167.0687 C.ar    1  UNL1        0.0887
      7 C         143.2627  139.2930  166.1794 C.2     1  UNL1        0.2520
      8 O         143.9756  138.0899  166.7220 O.2     1  UNL1       -0.2698
      9 N         143.4552  139.6963  164.7475 N.am    1  UNL1       -0.2752
     10 C         142.9306  140.7992  163.8765 C.3     1  UNL1        0.0997
     11 C         143.7273  140.2667  162.7226 C.3     1  UNL1        0.0620
     12 C         144.2519  139.1639  163.5935 C.3     1  UNL1        0.0997
     13 C         143.9198  140.6700  161.2907 C.ar    1  UNL1       -0.0192
     14 C         144.4263  142.0426  160.9597 C.ar    1  UNL1       -0.0042
     15 C         144.6188  142.4459  159.5278 C.ar    1  UNL1        0.0035
     16 C         144.3047  141.4767  158.4269 C.ar    1  UNL1        0.0714
     17 C         143.7981  140.1042  158.7579 C.ar    1  UNL1        0.0035
     18 C         143.6057  139.7008  160.1898 C.ar    1  UNL1       -0.0042
     19 C         144.4971  141.8800  156.9950 C.3     1  UNL1        0.4186
     20 F         144.6895  142.2834  155.5632 F       1  UNL1       -0.1659
     21 F         143.7345  143.1464  157.2493 F       1  UNL1       -0.1659
     22 F         145.2597  140.6136  156.7408 F       1  UNL1       -0.1659
     23 S         142.6181  142.7185  170.0330 S.O2    1  UNL1        0.0105
     24 C         143.2011  143.6316  171.0705 C.3     1  UNL1        0.1816
     25 O         143.8799  142.8264  169.2290 O.2     1  UNL1       -0.1686
     26 O         141.3564  142.6107  170.8369 O.2     1  UNL1       -0.1686
     27 O         140.2860  139.0664  165.8829 O.3     1  UNL1       -0.4702
     28 C         138.0982  140.0162  164.8527 C.3     1  UNL1        0.0566
     29 C         138.7993  138.9941  165.6976 C.3     1  UNL1        0.2599
     30 C         138.0136  137.8997  166.3572 C.3     1  UNL1        0.4340
     31 F         137.2279  136.8054  167.0168 F       1  UNL1       -0.1664
     32 F         137.3013  138.9176  167.1978 F       1  UNL1       -0.1664
     33 F         138.7258  136.8818  165.5167 F       1  UNL1       -0.1664
@<TRIPOS>BOND
     1    29    28    1
     2    29    27    1
     3    27     1    1
     4     1     2   ar
     5     2     3   ar
     6     3     4   ar
     7     4    23    1
     8    23    24    1
     9    23    25    2
    10    23    26    2
    11     4     5   ar
    12     5     6   ar
    13     6     7    1
    14     7     8    2
    15     7     9   am
    16     9    10    1
    17    10    11    1
    18    11    13    1
    19    13    14   ar
    20    14    15   ar
    21    15    16   ar
    22    16    19    1
    23    19    20    1
    24    19    21    1
    25    19    22    1
    26    16    17   ar
    27    17    18   ar
    28    11    12    1
    29    29    30    1
    30    30    31    1
    31    30    32    1
    32    30    33    1
    33     6     1   ar
    34    12     9    1
    35    18    13   ar
@<TRIPOS>MOLECULE
*****
 33 35 0 0 0
SMALL
GASTEIGER

@<TRIPOS>ATOM
      1 C         141.1465  143.9700  160.2088 C.ar    1  UNL1        0.1432
      2 C         141.5136  143.4318  158.8577 C.ar    1  UNL1        0.0384
      3 C         140.5075  142.6551  158.0611 C.ar    1  UNL1        0.0215
      4 C         139.1343  142.4168  158.6155 C.ar    1  UNL1        0.1061
      5 C         138.7672  142.9550  159.9666 C.ar    1  UNL1        0.0259
      6 C         139.7733  143.7316  160.7633 C.ar    1  UNL1        0.0887
      7 C         139.4062  144.2699  162.1144 C.2     1  UNL1        0.2520
      8 O         138.5010  145.4606  162.2268 O.2     1  UNL1       -0.2698
      9 N         139.9444  143.6174  163.3532 N.am    1  UNL1       -0.2752
     10 C         140.8444  142.4501  163.6317 C.3     1  UNL1        0.0997
     11 C         140.7055  142.6946  165.1051 C.3     1  UNL1        0.0620
     12 C         139.8056  143.8617  164.8266 C.3     1  UNL1        0.0997
     13 C         141.2437  142.0420  166.3439 C.ar    1  UNL1       -0.0192
     14 C         140.4170  141.0273  167.0766 C.ar    1  UNL1       -0.0042
     15 C         140.9552  140.3747  168.3154 C.ar    1  UNL1        0.0035
     16 C         142.3201  140.7370  168.8214 C.ar    1  UNL1        0.0714
     17 C         143.1467  141.7517  168.0886 C.ar    1  UNL1        0.0035
     18 C         142.6085  142.4042  166.8499 C.ar    1  UNL1       -0.0042
     19 C         142.8582  140.0845  170.0602 C.3     1  UNL1        0.4186
     20 F         143.3964  139.4319  171.2990 F       1  UNL1       -0.1659
     21 F         143.8446  141.2031  170.2209 F       1  UNL1       -0.1659
     22 F         141.8719  138.9659  169.8995 F       1  UNL1       -0.1659
     23 S         138.1282  141.6401  157.8189 S.O2    1  UNL1        0.0105
     24 C         137.1220  140.8635  157.0223 C.3     1  UNL1        0.1816
     25 O         138.0679  140.6057  158.9035 O.2     1  UNL1       -0.1686
     26 O         138.1884  142.6746  156.7344 O.2     1  UNL1       -0.1686
     27 O         142.1526  144.7466  161.0054 O.3     1  UNL1       -0.4702
     28 C         143.8228  142.7730  161.2613 C.3     1  UNL1        0.0566
     29 C         143.1969  144.0238  161.8035 C.3     1  UNL1        0.2599
     30 C         143.6153  144.5516  163.1438 C.3     1  UNL1        0.4340
     31 F         144.0336  145.0795  164.4840 F       1  UNL1       -0.1664
     32 F         144.7500  143.5712  163.1758 F       1  UNL1       -0.1664
     33 F         142.4805  145.5321  163.1118 F       1  UNL1       -0.1664
@<TRIPOS>BOND
     1    29    28    1
     2    29    27    1
     3    27     1    1
     4     1     2   ar
     5     2     3   ar
     6     3     4   ar
     7     4    23    1
     8    23    24    1
     9    23    25    2
    10    23    26    2
    11     4     5   ar
    12     5     6   ar
    13     6     7    1
    14     7     8    2
    15     7     9   am
    16     9    10    1
    17    10    11    1
    18    11    13    1
    19    13    14   ar
    20    14    15   ar
    21    15    16   ar
    22    16    19    1
    23    19    20    1
    24    19    21    1
    25    19    22    1
    26    16    17   ar
    27    17    18   ar
    28    11    12    1
    29    29    30    1
    30    30    31    1
    31    30    32    1
    32    30    33    1
    33     6     1   ar
    34    12     9    1
    35    18    13   ar
@<TRIPOS>MOLECULE
*****
 33 35 0 0 0
SMALL
GASTEIGER

@<TRIPOS>ATOM
      1 C         142.2923  143.8917  160.3841 C.ar    1  UNL1        0.1432
      2 C         142.7144  143.1778  159.1342 C.ar    1  UNL1        0.0384
      3 C         141.6798  142.6808  158.1685 C.ar    1  UNL1        0.0215
      4 C         140.2230  142.8976  158.4527 C.ar    1  UNL1        0.1061
      5 C         139.8009  143.6114  159.7026 C.ar    1  UNL1        0.0259
      6 C         140.8355  144.1084  160.6683 C.ar    1  UNL1        0.0887
      7 C         140.4133  144.8223  161.9182 C.2     1  UNL1        0.2520
      8 O         140.0953  146.2875  161.8740 O.2     1  UNL1       -0.2698
      9 N         140.3092  144.0709  163.2122 N.am    1  UNL1       -0.2752
     10 C         140.5378  142.6500  163.6350 C.3     1  UNL1        0.0997
     11 C         140.1620  143.0083  165.0423 C.3     1  UNL1        0.0620
     12 C         139.9334  144.4291  164.6195 C.3     1  UNL1        0.0997
     13 C         140.0578  142.2569  166.3363 C.ar    1  UNL1       -0.0192
     14 C         140.4745  142.9122  167.6197 C.ar    1  UNL1       -0.0042
     15 C         140.3704  142.1608  168.9138 C.ar    1  UNL1        0.0035
     16 C         139.8496  140.7541  168.9244 C.ar    1  UNL1        0.0714
     17 C         139.4330  140.0989  167.6410 C.ar    1  UNL1        0.0035
     18 C         139.5371  140.8503  166.3470 C.ar    1  UNL1       -0.0042
     19 C         139.7455  140.0027  170.2184 C.3     1  UNL1        0.4186
     20 F         139.6413  139.2513  171.5125 F       1  UNL1       -0.1659
     21 F         141.2010  139.6509  170.1313 F       1  UNL1       -0.1659
     22 F         138.2899  140.3545  170.3056 F       1  UNL1       -0.1659
     23 S         139.1884  142.4005  157.4871 S.O2    1  UNL1        0.0105
     24 C         138.1538  141.9035  156.5214 C.3     1  UNL1        0.1816
     25 O         140.2107  142.4052  156.3894 O.2     1  UNL1       -0.1686
     26 O         138.1662  142.3958  158.5848 O.2     1  UNL1       -0.1686
     27 O         143.3269  144.3887  161.3497 O.3     1  UNL1       -0.4702
     28 C         144.3919  142.0936  161.9400 C.3     1  UNL1        0.0566
     29 C         143.9191  143.4533  162.3617 C.3     1  UNL1        0.2599
     30 C         144.0385  143.8775  163.7956 C.3     1  UNL1        0.4340
     31 F         144.1580  144.3016  165.2294 F       1  UNL1       -0.1664
     32 F         143.3669  145.1778  163.4669 F       1  UNL1       -0.1664
     33 F         144.7101  142.5771  164.1243 F       1  UNL1       -0.1664
@<TRIPOS>BOND
     1    29    28    1
     2    29    27    1
     3    27     1    1
     4     1     2   ar
     5     2     3   ar
     6     3     4   ar
     7     4    23    1
     8    23    24    1
     9    23    25    2
    10    23    26    2
    11     4     5   ar
    12     5     6   ar
    13     6     7    1
    14     7     8    2
    15     7     9   am
    16     9    10    1
    17    10    11    1
    18    11    13    1
    19    13    14   ar
    20    14    15   ar
    21    15    16   ar
    22    16    19    1
    23    19    20    1
    24    19    21    1
    25    19    22    1
    26    16    17   ar
    27    17    18   ar
    28    11    12    1
    29    29    30    1
    30    30    31    1
    31    30    32    1
    32    30    33    1
    33     6     1   ar
    34    12     9    1
    35    18    13   ar
@<TRIPOS>MOLECULE
*****
 33 35 0 0 0
SMALL
GASTEIGER

@<TRIPOS>ATOM
      1 C         138.9802  140.2625  166.1397 C.ar    1  UNL1        0.1432
      2 C         139.2867  139.6247  167.4622 C.ar    1  UNL1        0.0384
      3 C         140.1263  140.3529  168.4695 C.ar    1  UNL1        0.0215
      4 C         140.6594  141.7191  168.1543 C.ar    1  UNL1        0.1061
      5 C         140.3529  142.3569  166.8318 C.ar    1  UNL1        0.0259
      6 C         139.5133  141.6287  165.8245 C.ar    1  UNL1        0.0887
      7 C         139.2068  142.2666  164.5019 C.2     1  UNL1        0.2520
      8 O         137.9627  143.0879  164.3357 O.2     1  UNL1       -0.2698
      9 N         140.1445  142.0833  163.3455 N.am    1  UNL1       -0.2752
     10 C         141.4407  141.3579  163.1357 C.3     1  UNL1        0.0997
     11 C         141.4706  141.8240  161.7102 C.3     1  UNL1        0.0620
     12 C         140.1746  142.5493  161.9201 C.3     1  UNL1        0.0997
     13 C         142.4083  141.6406  160.5539 C.ar    1  UNL1       -0.0192
     14 C         143.5108  142.6301  160.3181 C.ar    1  UNL1       -0.0042
     15 C         144.4485  142.4468  159.1618 C.ar    1  UNL1        0.0035
     16 C         144.2837  141.2739  158.2412 C.ar    1  UNL1        0.0714
     17 C         143.1813  140.2845  158.4770 C.ar    1  UNL1        0.0035
     18 C         142.2436  140.4679  159.6334 C.ar    1  UNL1       -0.0042
     19 C         145.2214  141.0906  157.0849 C.3     1  UNL1        0.4186
     20 F         146.1591  140.9072  155.9285 F       1  UNL1       -0.1659
     21 F         144.4560  139.8735  156.6572 F       1  UNL1       -0.1659
     22 F         145.9867  142.3077  157.5125 F       1  UNL1       -0.1659
     23 S         141.4990  142.4473  169.1616 S.O2    1  UNL1        0.0105
     24 C         142.3386  143.1756  170.1690 C.3     1  UNL1        0.1816
     25 O         142.5264  141.3565  169.0940 O.2     1  UNL1       -0.1686
     26 O         140.4717  143.5382  169.2293 O.2     1  UNL1       -0.1686
     27 O         138.1406  139.5343  165.1323 O.3     1  UNL1       -0.4702
     28 C         138.4270  138.9221  162.6237 C.3     1  UNL1        0.0566
     29 C         138.7968  138.7131  164.0623 C.3     1  UNL1        0.2599
     30 C         139.8229  137.6828  164.4308 C.3     1  UNL1        0.4340
     31 F         140.8489  136.6525  164.7993 F       1  UNL1       -0.1664
     32 F         138.8540  137.0621  165.3931 F       1  UNL1       -0.1664
     33 F         140.7917  138.3034  163.4685 F       1  UNL1       -0.1664
@<TRIPOS>BOND
     1    29    28    1
     2    29    27    1
     3    27     1    1
     4     1     2   ar
     5     2     3   ar
     6     3     4   ar
     7     4    23    1
     8    23    24    1
     9    23    25    2
    10    23    26    2
    11     4     5   ar
    12     5     6   ar
    13     6     7    1
    14     7     8    2
    15     7     9   am
    16     9    10    1
    17    10    11    1
    18    11    13    1
    19    13    14   ar
    20    14    15   ar
    21    15    16   ar
    22    16    19    1
    23    19    20    1
    24    19    21    1
    25    19    22    1
    26    16    17   ar
    27    17    18   ar
    28    11    12    1
    29    29    30    1
    30    30    31    1
    31    30    32    1
    32    30    33    1
    33     6     1   ar
    34    12     9    1
    35    18    13   ar
@<TRIPOS>MOLECULE
*****
 33 35 0 0 0
SMALL
GASTEIGER

@<TRIPOS>ATOM
      1 C         138.9812  142.4995  160.2559 C.ar    1  UNL1        0.1432
      2 C         138.5817  141.4750  159.2357 C.ar    1  UNL1        0.0384
      3 C         139.6216  140.8482  158.3551 C.ar    1  UNL1        0.0215
      4 C         141.0612  141.2458  158.4947 C.ar    1  UNL1        0.1061
      5 C         141.4608  142.2702  159.5148 C.ar    1  UNL1        0.0259
      6 C         140.4208  142.8971  160.3955 C.ar    1  UNL1        0.0887
      7 C         140.8204  143.9216  161.4157 C.2     1  UNL1        0.2520
      8 O         141.0126  145.3519  161.0068 O.2     1  UNL1       -0.2698
      9 N         141.0279  143.5157  162.8447 N.am    1  UNL1       -0.2752
     10 C         140.9329  142.2265  163.6057 C.3     1  UNL1        0.0997
     11 C         141.3212  142.9417  164.8657 C.3     1  UNL1        0.0620
     12 C         141.4161  144.2308  164.1048 C.3     1  UNL1        0.0997
     13 C         141.5287  142.5358  166.2948 C.ar    1  UNL1       -0.0192
     14 C         140.3548  142.4323  167.2230 C.ar    1  UNL1       -0.0042
     15 C         140.5623  142.0264  168.6520 C.ar    1  UNL1        0.0035
     16 C         141.9435  141.7240  169.1529 C.ar    1  UNL1        0.0714
     17 C         143.1173  141.8276  168.2247 C.ar    1  UNL1        0.0035
     18 C         142.9098  142.2335  166.7956 C.ar    1  UNL1       -0.0042
     19 C         142.1510  141.3182  170.5820 C.3     1  UNL1        0.4186
     20 F         142.3584  140.9123  172.0110 F       1  UNL1       -0.1659
     21 F         140.7527  141.7522  170.9082 F       1  UNL1       -0.1659
     22 F         143.5493  140.8842  170.2557 F       1  UNL1       -0.1659
     23 S         142.1012  140.6189  157.6141 S.O2    1  UNL1        0.0105
     24 C         143.1412  139.9921  156.7335 C.3     1  UNL1        0.1816
     25 O         141.5287  139.2630  157.9031 O.2     1  UNL1       -0.1686
     26 O         142.6737  141.9749  157.3250 O.2     1  UNL1       -0.1686
     27 O         137.9412  143.1263  161.1365 O.3     1  UNL1       -0.4702
     28 C         137.5057  141.0861  162.6849 C.3     1  UNL1        0.0566
     29 C         137.6776  142.5649  162.5023 C.3     1  UNL1        0.2599
     30 C         137.5857  143.4825  163.6854 C.3     1  UNL1        0.4340
     31 F         137.4939  144.3999  164.8685 F       1  UNL1       -0.1664
     32 F         137.7557  144.6666  162.7804 F       1  UNL1       -0.1664
     33 F         137.4158  142.2984  164.5904 F       1  UNL1       -0.1664
@<TRIPOS>BOND
     1    29    28    1
     2    29    27    1
     3    27     1    1
     4     1     2   ar
     5     2     3   ar
     6     3     4   ar
     7     4    23    1
     8    23    24    1
     9    23    25    2
    10    23    26    2
    11     4     5   ar
    12     5     6   ar
    13     6     7    1
    14     7     8    2
    15     7     9   am
    16     9    10    1
    17    10    11    1
    18    11    13    1
    19    13    14   ar
    20    14    15   ar
    21    15    16   ar
    22    16    19    1
    23    19    20    1
    24    19    21    1
    25    19    22    1
    26    16    17   ar
    27    17    18   ar
    28    11    12    1
    29    29    30    1
    30    30    31    1
    31    30    32    1
    32    30    33    1
    33     6     1   ar
    34    12     9    1
    35    18    13   ar
@<TRIPOS>MOLECULE
*****
 33 35 0 0 0
SMALL
GASTEIGER

@<TRIPOS>ATOM
      1 C         141.3919  143.3921  159.3724 C.ar    1  UNL1        0.1432
      2 C         141.5680  142.5703  158.1300 C.ar    1  UNL1        0.0384
      3 C         140.3761  141.9406  157.4721 C.ar    1  UNL1        0.0215
      4 C         139.0081  142.1327  158.0566 C.ar    1  UNL1        0.1061
      5 C         138.8320  142.9545  159.2990 C.ar    1  UNL1        0.0259
      6 C         140.0239  143.5842  159.9569 C.ar    1  UNL1        0.0887
      7 C         139.8478  144.4060  161.1994 C.2     1  UNL1        0.2520
      8 O         139.6607  145.8907  161.0963 O.2     1  UNL1       -0.2698
      9 N         139.8587  143.7431  162.5449 N.am    1  UNL1       -0.2752
     10 C         140.0148  142.3326  163.0312 C.3     1  UNL1        0.0997
     11 C         139.8742  142.8055  164.4477 C.3     1  UNL1        0.0620
     12 C         139.7182  144.2159  163.9615 C.3     1  UNL1        0.0997
     13 C         139.8852  142.1426  165.7932 C.ar    1  UNL1       -0.0192
     14 C         139.3020  140.7704  165.9580 C.ar    1  UNL1       -0.0042
     15 C         139.3130  140.1075  167.3035 C.ar    1  UNL1        0.0035
     16 C         139.9071  140.8167  168.4842 C.ar    1  UNL1        0.0714
     17 C         140.4902  142.1888  168.3194 C.ar    1  UNL1        0.0035
     18 C         140.4793  142.8518  166.9739 C.ar    1  UNL1       -0.0042
     19 C         139.9181  140.1538  169.8297 C.3     1  UNL1        0.4186
     20 F         139.9290  139.4908  171.1752 F       1  UNL1       -0.1659
     21 F         141.2168  139.4848  169.4895 F       1  UNL1       -0.1659
     22 F         138.6193  140.8227  170.1699 F       1  UNL1       -0.1659
     23 S         137.8162  141.5030  157.3987 S.O2    1  UNL1        0.0105
     24 C         136.6243  140.8733  156.7407 C.3     1  UNL1        0.1816
     25 O         138.1862  140.1780  157.9966 O.2     1  UNL1       -0.1686
     26 O         137.4463  142.8280  156.8007 O.2     1  UNL1       -0.1686
     27 O         142.5838  144.0218  160.0304 O.3     1  UNL1       -0.4702
     28 C         143.5038  143.9818  162.4598 C.3     1  UNL1        0.0566
     29 C         143.2957  143.3035  161.1381 C.3     1  UNL1        0.2599
     30 C         143.7995  141.9069  160.9244 C.3     1  UNL1        0.4340
     31 F         144.3033  140.5103  160.7106 F       1  UNL1       -0.1664
     32 F         144.6054  142.3773  159.7500 F       1  UNL1       -0.1664
     33 F         142.9936  141.4364  162.0987 F       1  UNL1       -0.1664
@<TRIPOS>BOND
     1    29    28    1
     2    29    27    1
     3    27     1    1
     4     1     2   ar
     5     2     3   ar
     6     3     4   ar
     7     4    23    1
     8    23    24    1
     9    23    25    2
    10    23    26    2
    11     4     5   ar
    12     5     6   ar
    13     6     7    1
    14     7     8    2
    15     7     9   am
    16     9    10    1
    17    10    11    1
    18    11    13    1
    19    13    14   ar
    20    14    15   ar
    21    15    16   ar
    22    16    19    1
    23    19    20    1
    24    19    21    1
    25    19    22    1
    26    16    17   ar
    27    17    18   ar
    28    11    12    1
    29    29    30    1
    30    30    31    1
    31    30    32    1
    32    30    33    1
    33     6     1   ar
    34    12     9    1
    35    18    13   ar
@<TRIPOS>MOLECULE
*****
 33 35 0 0 0
SMALL
GASTEIGER

@<TRIPOS>ATOM
      1 C         140.4440  138.9614  160.3438 C.ar    1  UNL1        0.1432
      2 C         141.5717  138.7166  159.3856 C.ar    1  UNL1        0.0384
      3 C         142.0877  139.8374  158.5325 C.ar    1  UNL1        0.0215
      4 C         141.4759  141.2029  158.6377 C.ar    1  UNL1        0.1061
      5 C         140.3481  141.4476  159.5959 C.ar    1  UNL1        0.0259
      6 C         139.8322  140.3268  160.4490 C.ar    1  UNL1        0.0887
      7 C         138.7043  140.5716  161.4072 C.2     1  UNL1        0.2520
      8 O         137.2895  140.5964  160.9097 O.2     1  UNL1       -0.2698
      9 N         138.9915  140.7915  162.8630 N.am    1  UNL1       -0.2752
     10 C         140.2326  140.8369  163.7043 C.3     1  UNL1        0.0997
     11 C         139.3975  141.1025  164.9217 C.3     1  UNL1        0.0620
     12 C         138.1565  141.0571  164.0805 C.3     1  UNL1        0.0997
     13 C         139.6846  141.3224  166.3774 C.ar    1  UNL1       -0.0192
     14 C         139.4786  140.2073  167.3593 C.ar    1  UNL1       -0.0042
     15 C         139.7657  140.4272  168.8151 C.ar    1  UNL1        0.0035
     16 C         140.2588  141.7623  169.2889 C.ar    1  UNL1        0.0714
     17 C         140.4648  142.8773  168.3071 C.ar    1  UNL1        0.0035
     18 C         140.1777  142.6574  166.8513 C.ar    1  UNL1       -0.0042
     19 C         140.5460  141.9822  170.7447 C.3     1  UNL1        0.4186
     20 F         140.8331  142.2021  172.2004 F       1  UNL1       -0.1659
     21 F         141.6328  140.9500  170.6862 F       1  UNL1       -0.1659
     22 F         139.4591  143.0143  170.8031 F       1  UNL1       -0.1659
     23 S         141.9918  142.3236  157.7846 S.O2    1  UNL1        0.0105
     24 C         142.5077  143.4444  156.9316 C.3     1  UNL1        0.1816
     25 O         141.6331  143.3067  158.8593 O.2     1  UNL1       -0.1686
     26 O         142.3505  141.3406  156.7100 O.2     1  UNL1       -0.1686
     27 O         139.9280  137.8406  161.1968 O.3     1  UNL1       -0.4702
     28 C         141.9616  137.6441  162.8018 C.3     1  UNL1        0.0566
     29 C         140.4786  137.6335  162.5766 C.3     1  UNL1        0.2599
     30 C         139.5463  137.4159  163.7314 C.3     1  UNL1        0.4340
     31 F         138.6140  137.1982  164.8861 F       1  UNL1       -0.1664
     32 F         138.3715  137.5543  162.8090 F       1  UNL1       -0.1664
     33 F         140.7210  137.2775  164.6537 F       1  UNL1       -0.1664
@<TRIPOS>BOND
     1    29    28    1
     2    29    27    1
     3    27     1    1
     4     1     2   ar
     5     2     3   ar
     6     3     4   ar
     7     4    23    1
     8    23    24    1
     9    23    25    2
    10    23    26    2
    11     4     5   ar
    12     5     6   ar
    13     6     7    1
    14     7     8    2
    15     7     9   am
    16     9    10    1
    17    10    11    1
    18    11    13    1
    19    13    14   ar
    20    14    15   ar
    21    15    16   ar
    22    16    19    1
    23    19    20    1
    24    19    21    1
    25    19    22    1
    26    16    17   ar
    27    17    18   ar
    28    11    12    1
    29    29    30    1
    30    30    31    1
    31    30    32    1
    32    30    33    1
    33     6     1   ar
    34    12     9    1
    35    18    13   ar
