@<TRIPOS>MOLECULE
*****
 26 28 0 0 0
SMALL
GASTEIGER

@<TRIPOS>ATOM
      1 C         137.7178  140.4586  160.8218 C.3     1  UNL1        0.0722
      2 C         138.2860  141.5713  161.6518 C.ar    1  UNL1        0.1240
      3 N         138.3917  143.0107  161.2430 N.ar    1  UNL1       -0.2339
      4 C         139.0194  143.7691  162.3748 C.ar    1  UNL1        0.0881
      5 C         139.3016  142.7985  163.4830 C.ar    1  UNL1        0.0569
      6 N         138.8483  141.4402  163.0362 N.ar    1  UNL1       -0.2975
      7 C         138.9411  140.1731  163.8337 C.ar    1  UNL1        0.0692
      8 C         139.8776  139.0831  163.4038 C.ar    1  UNL1        0.0473
      9 C         139.9704  137.8162  164.2014 C.ar    1  UNL1        0.1438
     10 F         140.9069  136.7261  163.7714 F       1  UNL1       -0.2040
     11 C         139.1267  137.6392  165.4289 C.ar    1  UNL1        0.0593
     12 C         138.1902  138.7292  165.8589 C.ar    1  UNL1        0.1438
     13 F         137.3465  138.5523  167.0864 F       1  UNL1       -0.2040
     14 C         138.0974  139.9962  165.0613 C.ar    1  UNL1        0.0473
     15 C         139.9271  143.1282  164.8058 C.3     1  UNL1        0.0399
     16 C         141.1921  142.4423  165.2291 C.3     1  UNL1        0.0063
     17 C         139.2877  144.1440  165.7055 C.3     1  UNL1        0.0063
     18 C         139.3132  145.2399  162.3948 C.3     1  UNL1        0.1163
     19 N         140.6527  145.7433  161.9449 N.3     1  UNL1       -0.2934
     20 H         140.6645  146.7478  162.1221 H       1  UNL1        0.1236
     21 C         141.9061  145.1824  162.5485 C.3     1  UNL1        0.0571
     22 C         142.5125  145.5896  163.8586 C.3     1  UNL1        0.0186
     23 C         143.7544  144.7747  164.0677 C.3     1  UNL1        0.0367
     24 C         143.9154  143.8639  162.8868 C.3     1  UNL1        0.1624
     25 F         145.0241  142.8748  162.6810 F       1  UNL1       -0.2372
     26 C         142.7731  144.1159  161.9478 C.3     1  UNL1        0.0510
@<TRIPOS>BOND
     1     1     2    1
     2     2     3   ar
     3     3     4   ar
     4     4    18    1
     5    18    19    1
     6    21    19    1
     7    21    22    1
     8    22    23    1
     9    23    24    1
    10    24    25    1
    11    24    26    1
    12     4     5   ar
    13     5    15    1
    14    15    16    1
    15    15    17    1
    16     5     6   ar
    17     6     7    1
    18     7     8   ar
    19     8     9   ar
    20     9    10    1
    21     9    11   ar
    22    11    12   ar
    23    12    13    1
    24    12    14   ar
    25     6     2   ar
    26    14     7   ar
    27    26    21    1
    28    19    20    1
@<TRIPOS>MOLECULE
*****
 26 28 0 0 0
SMALL
GASTEIGER

@<TRIPOS>ATOM
      1 C         137.7032  140.4244  160.8211 C.3     1  UNL1        0.0722
      2 C         138.2951  141.5288  161.6456 C.ar    1  UNL1        0.1240
      3 N         138.4093  142.9682  161.2394 N.ar    1  UNL1       -0.2339
      4 C         139.0615  143.7169  162.3638 C.ar    1  UNL1        0.0881
      5 C         139.3505  142.7401  163.4648 C.ar    1  UNL1        0.0569
      6 N         138.8768  141.3878  163.0210 N.ar    1  UNL1       -0.2975
      7 C         138.9688  140.1175  163.8135 C.ar    1  UNL1        0.0692
      8 C         138.1313  139.9396  165.0451 C.ar    1  UNL1        0.0473
      9 C         138.2232  138.6693  165.8375 C.ar    1  UNL1        0.1438
     10 F         137.3857  138.4913  167.0692 F       1  UNL1       -0.2040
     11 C         139.1527  137.5770  165.3983 C.ar    1  UNL1        0.0593
     12 C         139.9901  137.7549  164.1666 C.ar    1  UNL1        0.1438
     13 F         140.9196  136.6625  163.7274 F       1  UNL1       -0.2040
     14 C         139.8982  139.0251  163.3742 C.ar    1  UNL1        0.0473
     15 C         139.9992  143.0595  164.7790 C.3     1  UNL1        0.0399
     16 C         139.3734  144.0649  165.6997 C.3     1  UNL1        0.0063
     17 C         141.2738  142.3735  165.1727 C.3     1  UNL1        0.0063
     18 C         139.3706  145.1846  162.3836 C.3     1  UNL1        0.1163
     19 N         140.7108  145.6751  161.9220 N.3     1  UNL1       -0.2934
     20 H         140.7186  146.6855  162.0614 H       1  UNL1        0.1236
     21 C         141.9628  145.1413  162.5525 C.3     1  UNL1        0.0571
     22 C         142.5373  145.5684  163.8707 C.3     1  UNL1        0.0186
     23 C         143.7896  144.7778  164.1084 C.3     1  UNL1        0.0367
     24 C         143.9891  143.8621  162.9372 C.3     1  UNL1        0.1624
     25 F         145.1192  142.8921  162.7589 F       1  UNL1       -0.2372
     26 C         142.8600  144.0868  161.9756 C.3     1  UNL1        0.0510
@<TRIPOS>BOND
     1     1     2    1
     2     2     3   ar
     3     3     4   ar
     4     4    18    1
     5    18    19    1
     6    21    19    1
     7    21    22    1
     8    22    23    1
     9    23    24    1
    10    24    25    1
    11    24    26    1
    12     4     5   ar
    13     5    15    1
    14    15    16    1
    15    15    17    1
    16     5     6   ar
    17     6     7    1
    18     7     8   ar
    19     8     9   ar
    20     9    10    1
    21     9    11   ar
    22    11    12   ar
    23    12    13    1
    24    12    14   ar
    25     6     2   ar
    26    14     7   ar
    27    26    21    1
    28    19    20    1
@<TRIPOS>MOLECULE
*****
 26 28 0 0 0
SMALL
GASTEIGER

@<TRIPOS>ATOM
      1 C         142.9328  139.2191  166.9102 C.3     1  UNL1        0.0722
      2 C         142.0442  139.8981  165.9105 C.ar    1  UNL1        0.1240
      3 N         142.1288  139.7608  164.4192 N.ar    1  UNL1       -0.2339
      4 C         141.0519  140.6115  163.8135 C.ar    1  UNL1        0.0881
      5 C         140.3018  141.2744  164.9305 C.ar    1  UNL1        0.0569
      6 N         140.9150  140.8335  166.2265 N.ar    1  UNL1       -0.2975
      7 C         140.4761  141.2542  167.5979 C.ar    1  UNL1        0.0692
      8 C         140.8964  142.5865  168.1440 C.ar    1  UNL1        0.0473
      9 C         140.4574  143.0072  169.5152 C.ar    1  UNL1        0.1438
     10 F         140.8777  144.3396  170.0615 F       1  UNL1       -0.2040
     11 C         139.5983  142.0956  170.3403 C.ar    1  UNL1        0.0593
     12 C         139.1780  140.7633  169.7942 C.ar    1  UNL1        0.1438
     13 F         138.3189  139.8517  170.6193 F       1  UNL1       -0.2040
     14 C         139.6169  140.3426  168.4229 C.ar    1  UNL1        0.0473
     15 C         139.1420  142.2134  164.7783 C.3     1  UNL1        0.0399
     16 C         139.2964  143.6609  165.1399 C.3     1  UNL1        0.0063
     17 C         137.8277  141.7048  164.2644 C.3     1  UNL1        0.0063
     18 C         140.7740  140.7711  162.3482 C.3     1  UNL1        0.1163
     19 N         141.4712  141.8438  161.5651 N.3     1  UNL1       -0.2934
     20 H         141.1273  141.7795  160.6069 H       1  UNL1        0.1236
     21 C         141.3383  143.2799  161.9773 C.3     1  UNL1        0.0571
     22 C         142.2397  144.0115  162.9270 C.3     1  UNL1        0.0186
     23 C         141.7392  145.4203  163.0489 C.3     1  UNL1        0.0367
     24 C         140.5284  145.5592  162.1745 C.3     1  UNL1        0.1624
     25 F         139.7092  146.8027  161.9941 F       1  UNL1       -0.2372
     26 C         140.2806  144.2364  161.5122 C.3     1  UNL1        0.0510
@<TRIPOS>BOND
     1     1     2    1
     2     2     3   ar
     3     3     4   ar
     4     4    18    1
     5    18    19    1
     6    21    19    1
     7    21    22    1
     8    22    23    1
     9    23    24    1
    10    24    25    1
    11    24    26    1
    12     4     5   ar
    13     5    15    1
    14    15    16    1
    15    15    17    1
    16     5     6   ar
    17     6     7    1
    18     7     8   ar
    19     8     9   ar
    20     9    10    1
    21     9    11   ar
    22    11    12   ar
    23    12    13    1
    24    12    14   ar
    25     6     2   ar
    26    14     7   ar
    27    26    21    1
    28    19    20    1
@<TRIPOS>MOLECULE
*****
 26 28 0 0 0
SMALL
GASTEIGER

@<TRIPOS>ATOM
      1 C         142.9369  139.2163  166.9148 C.3     1  UNL1        0.0722
      2 C         142.0455  139.8887  165.9132 C.ar    1  UNL1        0.1240
      3 N         142.1312  139.7481  164.4223 N.ar    1  UNL1       -0.2339
      4 C         141.0505  140.5922  163.8142 C.ar    1  UNL1        0.0881
      5 C         140.2970  141.2545  164.9294 C.ar    1  UNL1        0.0569
      6 N         140.9119  140.8196  166.2266 N.ar    1  UNL1       -0.2975
      7 C         140.4706  141.2417  167.5968 C.ar    1  UNL1        0.0692
      8 C         139.6081  140.3320  168.4204 C.ar    1  UNL1        0.0473
      9 C         139.1669  140.7541  169.7904 C.ar    1  UNL1        0.1438
     10 F         138.3043  139.8443  170.6141 F       1  UNL1       -0.2040
     11 C         139.5882  142.0859  170.3369 C.ar    1  UNL1        0.0593
     12 C         140.4507  142.9957  169.5133 C.ar    1  UNL1        0.1438
     13 F         140.8721  144.3275  170.0598 F       1  UNL1       -0.2040
     14 C         140.8920  142.5736  168.1433 C.ar    1  UNL1        0.0473
     15 C         139.1329  142.1877  164.7745 C.3     1  UNL1        0.0399
     16 C         139.2778  143.6349  165.1411 C.3     1  UNL1        0.0063
     17 C         137.8238  141.6736  164.2530 C.3     1  UNL1        0.0063
     18 C         140.7723  140.7469  162.3484 C.3     1  UNL1        0.1163
     19 N         141.4643  141.8213  161.5629 N.3     1  UNL1       -0.2934
     20 H         141.1115  141.7614  160.6078 H       1  UNL1        0.1236
     21 C         141.3381  143.2560  161.9819 C.3     1  UNL1        0.0571
     22 C         142.2394  143.9773  162.9398 C.3     1  UNL1        0.0186
     23 C         141.7468  145.3884  163.0664 C.3     1  UNL1        0.0367
     24 C         140.5412  145.5393  162.1869 C.3     1  UNL1        0.1624
     25 F         139.7305  146.7887  162.0088 F       1  UNL1       -0.2372
     26 C         140.2886  144.2213  161.5166 C.3     1  UNL1        0.0510
@<TRIPOS>BOND
     1     1     2    1
     2     2     3   ar
     3     3     4   ar
     4     4    18    1
     5    18    19    1
     6    21    19    1
     7    21    22    1
     8    22    23    1
     9    23    24    1
    10    24    25    1
    11    24    26    1
    12     4     5   ar
    13     5    15    1
    14    15    16    1
    15    15    17    1
    16     5     6   ar
    17     6     7    1
    18     7     8   ar
    19     8     9   ar
    20     9    10    1
    21     9    11   ar
    22    11    12   ar
    23    12    13    1
    24    12    14   ar
    25     6     2   ar
    26    14     7   ar
    27    26    21    1
    28    19    20    1
@<TRIPOS>MOLECULE
*****
 26 28 0 0 0
SMALL
GASTEIGER

@<TRIPOS>ATOM
      1 C         143.4497  142.4760  166.1549 C.3     1  UNL1        0.0722
      2 C         142.4554  141.6586  165.3848 C.ar    1  UNL1        0.1240
      3 N         142.3073  141.6270  163.8925 N.ar    1  UNL1       -0.2339
      4 C         141.1950  140.6781  163.5571 C.ar    1  UNL1        0.0881
      5 C         140.6557  140.1233  164.8421 C.ar    1  UNL1        0.0569
      6 N         141.4348  140.7292  165.9717 N.ar    1  UNL1       -0.2975
      7 C         141.2291  140.4541  167.4319 C.ar    1  UNL1        0.0692
      8 C         142.2002  139.5858  168.1755 C.ar    1  UNL1        0.0473
      9 C         141.9946  139.3108  169.6357 C.ar    1  UNL1        0.1438
     10 F         142.9657  138.4424  170.3794 F       1  UNL1       -0.2040
     11 C         140.8178  139.9040  170.3522 C.ar    1  UNL1        0.0593
     12 C         139.8468  140.7723  169.6085 C.ar    1  UNL1        0.1438
     13 F         138.6700  141.3656  170.3251 F       1  UNL1       -0.2040
     14 C         140.0524  141.0474  168.1484 C.ar    1  UNL1        0.0473
     15 C         139.5344  139.1358  164.9744 C.3     1  UNL1        0.0399
     16 C         139.7989  137.6711  164.7884 C.3     1  UNL1        0.0063
     17 C         138.1484  139.6131  165.2927 C.3     1  UNL1        0.0063
     18 C         140.7075  140.3429  162.1787 C.3     1  UNL1        0.1163
     19 N         139.4254  140.9341  161.6721 N.3     1  UNL1       -0.2934
     20 H         138.6796  140.2903  161.9362 H       1  UNL1        0.1236
     21 C         138.9990  142.2994  162.1239 C.3     1  UNL1        0.0571
     22 C         137.7980  142.6145  162.9655 C.3     1  UNL1        0.0186
     23 C         137.7556  144.0991  163.1752 C.3     1  UNL1        0.0367
     24 C         138.9303  144.7016  162.4632 C.3     1  UNL1        0.1624
     25 F         139.2759  146.1603  162.4103 F       1  UNL1       -0.2372
     26 C         139.6988  143.5893  161.8135 C.3     1  UNL1        0.0510
@<TRIPOS>BOND
     1     1     2    1
     2     2     3   ar
     3     3     4   ar
     4     4    18    1
     5    18    19    1
     6    21    19    1
     7    21    22    1
     8    22    23    1
     9    23    24    1
    10    24    25    1
    11    24    26    1
    12     4     5   ar
    13     5    15    1
    14    15    16    1
    15    15    17    1
    16     5     6   ar
    17     6     7    1
    18     7     8   ar
    19     8     9   ar
    20     9    10    1
    21     9    11   ar
    22    11    12   ar
    23    12    13    1
    24    12    14   ar
    25     6     2   ar
    26    14     7   ar
    27    26    21    1
    28    19    20    1
@<TRIPOS>MOLECULE
*****
 26 28 0 0 0
SMALL
GASTEIGER

@<TRIPOS>ATOM
      1 C         139.0940  139.6028  167.4794 C.3     1  UNL1        0.0722
      2 C         139.8527  140.2020  166.3325 C.ar    1  UNL1        0.1240
      3 N         139.7086  139.8258  164.8877 N.ar    1  UNL1       -0.2339
      4 C         140.6555  140.6739  164.0912 C.ar    1  UNL1        0.0881
      5 C         141.3847  141.5742  165.0439 C.ar    1  UNL1        0.0569
      6 N         140.8885  141.2826  166.4292 N.ar    1  UNL1       -0.2975
      7 C         141.3476  141.9537  167.6897 C.ar    1  UNL1        0.0692
      8 C         140.4558  142.9421  168.3807 C.ar    1  UNL1        0.0473
      9 C         140.9149  143.6132  169.6412 C.ar    1  UNL1        0.1438
     10 F         140.0231  144.6017  170.3323 F       1  UNL1       -0.2040
     11 C         142.2659  143.2959  170.2106 C.ar    1  UNL1        0.0593
     12 C         143.1577  142.3074  169.5195 C.ar    1  UNL1        0.1438
     13 F         144.5087  141.9901  170.0889 F       1  UNL1       -0.2040
     14 C         142.6986  141.6364  168.2591 C.ar    1  UNL1        0.0473
     15 C         142.4270  142.5882  164.6760 C.3     1  UNL1        0.0399
     16 C         142.0452  144.0288  164.5065 C.3     1  UNL1        0.0063
     17 C         143.8513  142.1615  164.4776 C.3     1  UNL1        0.0063
     18 C         140.8406  140.6295  162.6034 C.3     1  UNL1        0.1163
     19 N         139.8889  141.3647  161.7069 N.3     1  UNL1       -0.2934
     20 H         139.0404  140.8012  161.6529 H       1  UNL1        0.1236
     21 C         139.4606  142.7604  162.0512 C.3     1  UNL1        0.0571
     22 C         138.3148  143.1362  162.9433 C.3     1  UNL1        0.0186
     23 C         138.2490  144.6334  163.0073 C.3     1  UNL1        0.0367
     24 C         139.3542  145.1828  162.1549 C.3     1  UNL1        0.1624
     25 F         139.6573  146.6349  161.9324 F       1  UNL1       -0.2372
     26 C         140.1030  144.0252  161.5640 C.3     1  UNL1        0.0510
@<TRIPOS>BOND
     1     1     2    1
     2     2     3   ar
     3     3     4   ar
     4     4    18    1
     5    18    19    1
     6    21    19    1
     7    21    22    1
     8    22    23    1
     9    23    24    1
    10    24    25    1
    11    24    26    1
    12     4     5   ar
    13     5    15    1
    14    15    16    1
    15    15    17    1
    16     5     6   ar
    17     6     7    1
    18     7     8   ar
    19     8     9   ar
    20     9    10    1
    21     9    11   ar
    22    11    12   ar
    23    12    13    1
    24    12    14   ar
    25     6     2   ar
    26    14     7   ar
    27    26    21    1
    28    19    20    1
@<TRIPOS>MOLECULE
*****
 26 28 0 0 0
SMALL
GASTEIGER

@<TRIPOS>ATOM
      1 C         138.3267  144.4446  165.1492 C.3     1  UNL1        0.0722
      2 C         139.7761  144.2279  164.8296 C.ar    1  UNL1        0.1240
      3 N         140.5547  144.9224  163.7519 N.ar    1  UNL1       -0.2339
      4 C         141.9613  144.4023  163.7878 C.ar    1  UNL1        0.0881
      5 C         142.0519  143.3864  164.8876 C.ar    1  UNL1        0.0569
      6 N         140.7014  143.2786  165.5315 N.ar    1  UNL1       -0.2975
      7 C         140.3397  142.3794  166.6764 C.ar    1  UNL1        0.0692
      8 C         139.6799  141.0583  166.4130 C.ar    1  UNL1        0.0473
      9 C         139.3183  140.1592  167.5579 C.ar    1  UNL1        0.1438
     10 F         138.6585  138.8380  167.2945 F       1  UNL1       -0.2040
     11 C         139.6165  140.5811  168.9661 C.ar    1  UNL1        0.0593
     12 C         140.2763  141.9021  169.2295 C.ar    1  UNL1        0.1438
     13 F         140.5745  142.3240  170.6377 F       1  UNL1       -0.2040
     14 C         140.6379  142.8013  168.0846 C.ar    1  UNL1        0.0473
     15 C         143.2778  142.6140  165.2755 C.3     1  UNL1        0.0399
     16 C         144.5172  143.3408  165.7062 C.3     1  UNL1        0.0063
     17 C         143.2643  141.1147  165.2328 C.3     1  UNL1        0.0063
     18 C         143.0806  144.8241  162.8827 C.3     1  UNL1        0.1163
     19 N         143.3353  144.0776  161.6068 N.3     1  UNL1       -0.2934
     20 H         144.1991  144.4518  161.2141 H       1  UNL1        0.1236
     21 C         143.4801  142.5847  161.6275 C.3     1  UNL1        0.0571
     22 C         144.7505  141.8255  161.8715 C.3     1  UNL1        0.0186
     23 C         144.4355  140.3606  161.8026 C.3     1  UNL1        0.0367
     24 C         142.9705  140.2145  161.5160 C.3     1  UNL1        0.1624
     25 F         142.2265  138.9209  161.3642 F       1  UNL1       -0.2372
     26 C         142.3800  141.5891  161.4077 C.3     1  UNL1        0.0510
@<TRIPOS>BOND
     1     1     2    1
     2     2     3   ar
     3     3     4   ar
     4     4    18    1
     5    18    19    1
     6    21    19    1
     7    21    22    1
     8    22    23    1
     9    23    24    1
    10    24    25    1
    11    24    26    1
    12     4     5   ar
    13     5    15    1
    14    15    16    1
    15    15    17    1
    16     5     6   ar
    17     6     7    1
    18     7     8   ar
    19     8     9   ar
    20     9    10    1
    21     9    11   ar
    22    11    12   ar
    23    12    13    1
    24    12    14   ar
    25     6     2   ar
    26    14     7   ar
    27    26    21    1
    28    19    20    1
@<TRIPOS>MOLECULE
*****
 26 28 0 0 0
SMALL
GASTEIGER

@<TRIPOS>ATOM
      1 C         138.3388  144.5656  165.2602 C.3     1  UNL1        0.0722
      2 C         139.7696  144.3047  164.8931 C.ar    1  UNL1        0.1240
      3 N         140.5348  144.9793  163.7933 N.ar    1  UNL1       -0.2339
      4 C         141.9245  144.4149  163.7818 C.ar    1  UNL1        0.0881
      5 C         142.0183  143.3915  164.8744 C.ar    1  UNL1        0.0569
      6 N         140.6864  143.3234  165.5612 N.ar    1  UNL1       -0.2975
      7 C         140.3335  142.4307  166.7139 C.ar    1  UNL1        0.0692
      8 C         140.6154  142.8733  168.1190 C.ar    1  UNL1        0.0473
      9 C         140.2624  141.9805  169.2716 C.ar    1  UNL1        0.1438
     10 F         140.5443  142.4231  170.6769 F       1  UNL1       -0.2040
     11 C         139.6276  140.6452  169.0189 C.ar    1  UNL1        0.0593
     12 C         139.3457  140.2026  167.6138 C.ar    1  UNL1        0.1438
     13 F         138.7109  138.8672  167.3611 F       1  UNL1       -0.2040
     14 C         139.6987  141.0953  166.4612 C.ar    1  UNL1        0.0473
     15 C         143.2309  142.5789  165.2196 C.3     1  UNL1        0.0399
     16 C         143.1984  141.0860  165.0784 C.3     1  UNL1        0.0063
     17 C         144.4761  143.2593  165.7061 C.3     1  UNL1        0.0063
     18 C         143.0270  144.8054  162.8426 C.3     1  UNL1        0.1163
     19 N         143.2028  144.0717  161.5461 N.3     1  UNL1       -0.2934
     20 H         144.0214  144.4734  161.0891 H       1  UNL1        0.1236
     21 C         143.3934  142.5839  161.5462 C.3     1  UNL1        0.0571
     22 C         144.6925  141.8615  161.7475 C.3     1  UNL1        0.0186
     23 C         144.4204  140.3884  161.6707 C.3     1  UNL1        0.0367
     24 C         142.9532  140.2004  161.4220 C.3     1  UNL1        0.1624
     25 F         142.2451  138.8862  161.2759 F       1  UNL1       -0.2372
     26 C         142.3185  141.5573  161.3451 C.3     1  UNL1        0.0510
@<TRIPOS>BOND
     1     1     2    1
     2     2     3   ar
     3     3     4   ar
     4     4    18    1
     5    18    19    1
     6    21    19    1
     7    21    22    1
     8    22    23    1
     9    23    24    1
    10    24    25    1
    11    24    26    1
    12     4     5   ar
    13     5    15    1
    14    15    16    1
    15    15    17    1
    16     5     6   ar
    17     6     7    1
    18     7     8   ar
    19     8     9   ar
    20     9    10    1
    21     9    11   ar
    22    11    12   ar
    23    12    13    1
    24    12    14   ar
    25     6     2   ar
    26    14     7   ar
    27    26    21    1
    28    19    20    1
@<TRIPOS>MOLECULE
*****
 26 28 0 0 0
SMALL
GASTEIGER

@<TRIPOS>ATOM
      1 C         142.9610  143.3577  164.0239 C.3     1  UNL1        0.0722
      2 C         142.5084  142.1472  164.7853 C.ar    1  UNL1        0.1240
      3 N         143.2763  141.4485  165.8679 N.ar    1  UNL1       -0.2339
      4 C         142.4509  140.2923  166.3495 C.ar    1  UNL1        0.0881
      5 C         141.1728  140.2764  165.5645 C.ar    1  UNL1        0.0569
      6 N         141.2084  141.4228  164.5977 N.ar    1  UNL1       -0.2975
      7 C         140.1326  141.7818  163.6158 C.ar    1  UNL1        0.0692
      8 C         139.9938  141.0071  162.3389 C.ar    1  UNL1        0.0473
      9 C         138.9181  141.3661  161.3571 C.ar    1  UNL1        0.1438
     10 F         138.7792  140.5913  160.0802 F       1  UNL1       -0.2040
     11 C         137.9813  142.4998  161.6522 C.ar    1  UNL1        0.0593
     12 C         138.1202  143.2745  162.9291 C.ar    1  UNL1        0.1438
     13 F         137.1833  144.4082  163.2241 F       1  UNL1       -0.2040
     14 C         139.1958  142.9155  163.9109 C.ar    1  UNL1        0.0473
     15 C         140.0554  139.2877  165.7190 C.3     1  UNL1        0.0399
     16 C         140.0779  138.0033  164.9446 C.3     1  UNL1        0.0063
     17 C         138.9155  139.5835  166.6480 C.3     1  UNL1        0.0063
     18 C         142.8359  139.3223  167.4269 C.3     1  UNL1        0.1163
     19 N         142.7420  139.7263  168.8684 N.3     1  UNL1       -0.2934
     20 H         143.6701  140.0457  169.1458 H       1  UNL1        0.1236
     21 C         141.7739  140.7929  169.2868 C.3     1  UNL1        0.0571
     22 C         140.3880  140.5679  169.8145 C.3     1  UNL1        0.0186
     23 C         139.7794  141.9078  170.1048 C.3     1  UNL1        0.0367
     24 C         140.7892  142.9609  169.7564 C.3     1  UNL1        0.1624
     25 F         140.5995  144.4428  169.8902 F       1  UNL1       -0.2372
     26 C         142.0219  142.2718  169.2509 C.3     1  UNL1        0.0510
@<TRIPOS>BOND
     1     1     2    1
     2     2     3   ar
     3     3     4   ar
     4     4    18    1
     5    18    19    1
     6    21    19    1
     7    21    22    1
     8    22    23    1
     9    23    24    1
    10    24    25    1
    11    24    26    1
    12     4     5   ar
    13     5    15    1
    14    15    16    1
    15    15    17    1
    16     5     6   ar
    17     6     7    1
    18     7     8   ar
    19     8     9   ar
    20     9    10    1
    21     9    11   ar
    22    11    12   ar
    23    12    13    1
    24    12    14   ar
    25     6     2   ar
    26    14     7   ar
    27    26    21    1
    28    19    20    1
