@<TRIPOS>MOLECULE
*****
 28 32 0 0 0
SMALL
GASTEIGER

@<TRIPOS>ATOM
      1 C         143.4431  139.6485  163.3267 C.3     1  UNL1        0.1019
      2 N         143.1331  139.7199  164.7926 N.3     1  UNL1       -0.2687
      3 C         142.3732  140.8905  165.3424 C.3     1  UNL1        0.0751
      4 C         142.0632  140.9618  166.8083 C.3     1  UNL1        0.0488
      5 C         142.5132  139.8626  167.7244 C.3     1  UNL1        0.1143
      6 C         143.2731  138.6920  167.1746 C.3     1  UNL1        0.0488
      7 C         143.5830  138.6207  165.7087 C.3     1  UNL1        0.0751
      8 O         142.8961  138.8443  168.7571 O.3     1  UNL1       -0.3497
      9 C         142.3854  139.3172  170.0860 C.3     1  UNL1        0.1686
     10 C         141.6869  140.6277  169.8744 C.ar    1  UNL1        0.0055
     11 C         140.9891  141.5576  170.8223 C.ar    1  UNL1       -0.0021
     12 C         140.3703  142.8245  170.3106 C.ar    1  UNL1       -0.0003
     13 C         140.4493  143.1617  168.8511 C.ar    1  UNL1       -0.0003
     14 C         141.1470  142.2318  167.9033 C.ar    1  UNL1       -0.0023
     15 C         141.7658  140.9648  168.4149 C.ar    1  UNL1        0.0005
     16 N         143.2486  142.7164  160.9570 N.ar    1  UNL1       -0.2116
     17 C         142.6825  141.4325  161.4871 C.ar    1  UNL1        0.1003
     18 C         143.6200  140.9103  162.5352 C.ar    1  UNL1        0.0283
     19 C         144.7655  141.8715  162.6529 C.ar    1  UNL1        0.0782
     20 C         145.9352  141.7397  163.5826 C.3     1  UNL1        0.0537
     21 N         144.5360  142.9878  161.6775 N.ar    1  UNL1       -0.1684
     22 C         141.1261  144.7095  161.6799 C.3     1  UNL1        0.0342
     23 C         141.5738  144.5743  160.2546 C.ar    1  UNL1        0.0140
     24 C         140.9603  145.4357  159.1908 C.ar    1  UNL1        0.0004
     25 C         141.4081  145.3005  157.7657 C.ar    1  UNL1        0.0205
     26 C         142.4694  144.3040  157.4043 C.ar    1  UNL1        0.1006
     27 N         143.0829  143.4427  158.4681 N.ar    1  UNL1       -0.2254
     28 C         142.6351  143.5778  159.8932 C.ar    1  UNL1        0.1597
@<TRIPOS>BOND
     1    22    23    1
     2    23    24   ar
     3    24    25   ar
     4    25    26   ar
     5    26    27   ar
     6    27    28   ar
     7    28    16    1
     8    16    17   ar
     9    17    18   ar
    10    18     1    1
    11     1     2    1
    12     2     3    1
    13     3     4    1
    14     4     5    1
    15     5     6    1
    16     6     7    1
    17     5     8    1
    18     8     9    1
    19     9    10    1
    20    10    11   ar
    21    11    12   ar
    22    12    13   ar
    23    13    14   ar
    24    14    15   ar
    25    18    19   ar
    26    19    20    1
    27    19    21   ar
    28    28    23   ar
    29    21    16   ar
    30     7     2    1
    31    15    10   ar
    32    15     5    1
@<TRIPOS>MOLECULE
*****
 28 32 0 0 0
SMALL
GASTEIGER

@<TRIPOS>ATOM
      1 C         138.7695  139.1058  163.5169 C.3     1  UNL1        0.1019
      2 N         139.1103  139.4529  164.9359 N.3     1  UNL1       -0.2687
      3 C         140.3407  140.2564  165.2367 C.3     1  UNL1        0.0751
      4 C         140.6815  140.6035  166.6556 C.3     1  UNL1        0.0488
      5 C         139.7918  140.1471  167.7737 C.3     1  UNL1        0.1143
      6 C         138.5615  139.3436  167.4730 C.3     1  UNL1        0.0488
      7 C         138.2207  138.9965  166.0540 C.3     1  UNL1        0.0751
      8 O         139.0019  139.7626  168.9896 O.3     1  UNL1       -0.3497
      9 C         139.7043  140.3175  170.1933 C.3     1  UNL1        0.1686
     10 C         140.9283  141.0449  169.7213 C.ar    1  UNL1        0.0055
     11 C         142.0006  141.7896  170.4600 C.ar    1  UNL1       -0.0021
     12 C         143.1269  142.4289  169.7034 C.ar    1  UNL1       -0.0003
     13 C         143.1811  142.3236  168.2081 C.ar    1  UNL1       -0.0003
     14 C         142.1088  141.5790  167.4694 C.ar    1  UNL1       -0.0023
     15 C         140.9824  140.9396  168.2260 C.ar    1  UNL1        0.0005
     16 N         141.2717  138.5424  160.6037 N.ar    1  UNL1       -0.2116
     17 C         140.0908  139.2512  161.1979 C.ar    1  UNL1        0.1003
     18 C         139.8516  138.6864  162.5667 C.ar    1  UNL1        0.0283
     19 C         140.8847  137.6284  162.8186 C.ar    1  UNL1        0.0782
     20 C         141.0169  136.8041  164.0648 C.3     1  UNL1        0.0537
     21 N         141.7623  137.5393  161.6054 N.ar    1  UNL1       -0.1684
     22 C         143.5982  140.4114  160.2970 C.3     1  UNL1        0.0342
     23 C         143.0221  139.7270  159.0929 C.ar    1  UNL1        0.0140
     24 C         143.6092  139.9772  157.7354 C.ar    1  UNL1        0.0004
     25 C         143.0330  139.2929  156.5314 C.ar    1  UNL1        0.0205
     26 C         141.8698  138.3584  156.6848 C.ar    1  UNL1        0.1006
     27 N         141.2827  138.1083  158.0422 N.ar    1  UNL1       -0.2254
     28 C         141.8588  138.7925  159.2463 C.ar    1  UNL1        0.1597
@<TRIPOS>BOND
     1    22    23    1
     2    23    24   ar
     3    24    25   ar
     4    25    26   ar
     5    26    27   ar
     6    27    28   ar
     7    28    16    1
     8    16    17   ar
     9    17    18   ar
    10    18     1    1
    11     1     2    1
    12     2     3    1
    13     3     4    1
    14     4     5    1
    15     5     6    1
    16     6     7    1
    17     5     8    1
    18     8     9    1
    19     9    10    1
    20    10    11   ar
    21    11    12   ar
    22    12    13   ar
    23    13    14   ar
    24    14    15   ar
    25    18    19   ar
    26    19    20    1
    27    19    21   ar
    28    28    23   ar
    29    21    16   ar
    30     7     2    1
    31    15    10   ar
    32    15     5    1
@<TRIPOS>MOLECULE
*****
 28 32 0 0 0
SMALL
GASTEIGER

@<TRIPOS>ATOM
      1 C         138.1365  139.7885  164.4485 C.3     1  UNL1        0.1019
      2 N         138.6617  140.6669  163.3518 N.3     1  UNL1       -0.2687
      3 C         140.0774  140.5128  162.8806 C.3     1  UNL1        0.0751
      4 C         140.6026  141.3912  161.7840 C.3     1  UNL1        0.0488
      5 C         139.7121  142.4236  161.1586 C.3     1  UNL1        0.1143
      6 C         138.2964  142.5777  161.6298 C.3     1  UNL1        0.0488
      7 C         137.7713  141.6993  162.7264 C.3     1  UNL1        0.0751
      8 O         138.9436  143.4941  160.4420 O.3     1  UNL1       -0.3497
      9 C         139.8546  144.1179  159.4265 C.3     1  UNL1        0.1686
     10 C         141.1861  143.4328  159.5155 C.ar    1  UNL1        0.0055
     11 C         142.4674  143.6272  158.7601 C.ar    1  UNL1       -0.0021
     12 C         143.6605  142.7746  159.0752 C.ar    1  UNL1       -0.0003
     13 C         143.5725  141.7274  160.1457 C.ar    1  UNL1       -0.0003
     14 C         142.2912  141.5331  160.9010 C.ar    1  UNL1       -0.0023
     15 C         141.0981  142.3858  160.5860 C.ar    1  UNL1        0.0005
     16 N         139.9420  140.6998  167.7614 N.ar    1  UNL1       -0.2116
     17 C         139.6852  140.9334  166.3021 C.ar    1  UNL1        0.1003
     18 C         138.6811  139.9193  165.8400 C.ar    1  UNL1        0.0283
     19 C         138.3174  139.0589  167.0136 C.ar    1  UNL1        0.0782
     20 C         137.3451  137.9168  167.0018 C.3     1  UNL1        0.0537
     21 N         139.0966  139.5413  168.2011 N.ar    1  UNL1       -0.1684
     22 C         142.7078  139.6701  168.2998 C.3     1  UNL1        0.0342
     23 C         142.2624  140.9717  168.8979 C.ar    1  UNL1        0.0140
     24 C         143.1999  141.7584  169.7652 C.ar    1  UNL1        0.0004
     25 C         142.7544  143.0599  170.3632 C.ar    1  UNL1        0.0205
     26 C         141.3716  143.5746  170.0939 C.ar    1  UNL1        0.1006
     27 N         140.4341  142.7879  169.2267 N.ar    1  UNL1       -0.2254
     28 C         140.8795  141.4865  168.6286 C.ar    1  UNL1        0.1597
@<TRIPOS>BOND
     1    22    23    1
     2    23    24   ar
     3    24    25   ar
     4    25    26   ar
     5    26    27   ar
     6    27    28   ar
     7    28    16    1
     8    16    17   ar
     9    17    18   ar
    10    18     1    1
    11     1     2    1
    12     2     3    1
    13     3     4    1
    14     4     5    1
    15     5     6    1
    16     6     7    1
    17     5     8    1
    18     8     9    1
    19     9    10    1
    20    10    11   ar
    21    11    12   ar
    22    12    13   ar
    23    13    14   ar
    24    14    15   ar
    25    18    19   ar
    26    19    20    1
    27    19    21   ar
    28    28    23   ar
    29    21    16   ar
    30     7     2    1
    31    15    10   ar
    32    15     5    1
@<TRIPOS>MOLECULE
*****
 28 32 0 0 0
SMALL
GASTEIGER

@<TRIPOS>ATOM
      1 C         138.9872  137.6957  163.5883 C.3     1  UNL1        0.1019
      2 N         139.1717  138.3964  164.9017 N.3     1  UNL1       -0.2687
      3 C         140.3654  139.2780  165.1202 C.3     1  UNL1        0.0751
      4 C         140.5499  139.9786  166.4336 C.3     1  UNL1        0.0488
      5 C         139.5408  139.7976  167.5285 C.3     1  UNL1        0.1143
      6 C         138.3471  138.9159  167.3100 C.3     1  UNL1        0.0488
      7 C         138.1626  138.2153  165.9966 C.3     1  UNL1        0.0751
      8 O         138.6203  139.7130  168.7099 O.3     1  UNL1       -0.3497
      9 C         139.1889  140.5690  169.8027 C.3     1  UNL1        0.1686
     10 C         140.4607  141.1826  169.2967 C.ar    1  UNL1        0.0055
     11 C         141.4489  142.1138  169.9341 C.ar    1  UNL1       -0.0021
     12 C         142.6545  142.5682  169.1662 C.ar    1  UNL1       -0.0003
     13 C         142.8720  142.0915  167.7606 C.ar    1  UNL1       -0.0003
     14 C         141.8839  141.1603  167.1232 C.ar    1  UNL1       -0.0023
     15 C         140.6782  140.7058  167.8912 C.ar    1  UNL1        0.0005
     16 N         139.1899  139.7396  160.2948 N.ar    1  UNL1       -0.2116
     17 C         138.4210  139.2422  161.4829 C.ar    1  UNL1        0.1003
     18 C         139.3420  138.3942  162.3092 C.ar    1  UNL1        0.0283
     19 C         140.6800  138.3675  161.6319 C.ar    1  UNL1        0.0782
     20 C         141.8982  137.6376  162.1147 C.3     1  UNL1        0.0537
     21 N         140.5861  139.1990  160.3869 N.ar    1  UNL1       -0.1684
     22 C         139.6827  142.6974  160.3854 C.3     1  UNL1        0.0342
     23 C         138.9027  142.1014  159.2512 C.ar    1  UNL1        0.0140
     24 C         138.3691  142.9843  158.1622 C.ar    1  UNL1        0.0004
     25 C         137.5891  142.3882  157.0281 C.ar    1  UNL1        0.0205
     26 C         137.3428  140.9094  156.9828 C.ar    1  UNL1        0.1006
     27 N         137.8764  140.0265  158.0717 N.ar    1  UNL1       -0.2254
     28 C         138.6563  140.6224  159.2059 C.ar    1  UNL1        0.1597
@<TRIPOS>BOND
     1    22    23    1
     2    23    24   ar
     3    24    25   ar
     4    25    26   ar
     5    26    27   ar
     6    27    28   ar
     7    28    16    1
     8    16    17   ar
     9    17    18   ar
    10    18     1    1
    11     1     2    1
    12     2     3    1
    13     3     4    1
    14     4     5    1
    15     5     6    1
    16     6     7    1
    17     5     8    1
    18     8     9    1
    19     9    10    1
    20    10    11   ar
    21    11    12   ar
    22    12    13   ar
    23    13    14   ar
    24    14    15   ar
    25    18    19   ar
    26    19    20    1
    27    19    21   ar
    28    28    23   ar
    29    21    16   ar
    30     7     2    1
    31    15    10   ar
    32    15     5    1
@<TRIPOS>MOLECULE
*****
 28 32 0 0 0
SMALL
GASTEIGER

@<TRIPOS>ATOM
      1 C         138.0155  139.8666  162.8635 C.3     1  UNL1        0.1019
      2 N         138.9554  139.7828  164.0297 N.3     1  UNL1       -0.2687
      3 C         138.4488  140.0269  165.4202 C.3     1  UNL1        0.0751
      4 C         139.3886  139.9431  166.5863 C.3     1  UNL1        0.0488
      5 C         140.8350  139.6153  166.3617 C.3     1  UNL1        0.1143
      6 C         141.3416  139.3712  164.9711 C.3     1  UNL1        0.0488
      7 C         140.4018  139.4550  163.8051 C.3     1  UNL1        0.0751
      8 O         142.2997  139.2989  166.2927 O.3     1  UNL1       -0.3497
      9 C         142.8452  139.3213  167.6899 C.3     1  UNL1        0.1686
     10 C         141.7175  139.6514  168.6224 C.ar    1  UNL1        0.0055
     11 C         141.6615  139.8101  170.1129 C.ar    1  UNL1       -0.0021
     12 C         140.3632  140.1504  170.7826 C.ar    1  UNL1       -0.0003
     13 C         139.1209  140.3322  169.9618 C.ar    1  UNL1       -0.0003
     14 C         139.1769  140.1735  168.4713 C.ar    1  UNL1       -0.0023
     15 C         140.4753  139.8331  167.8016 C.ar    1  UNL1        0.0005
     16 N         138.3904  142.3296  159.8872 N.ar    1  UNL1       -0.2116
     17 C         138.4042  140.9374  160.4454 C.ar    1  UNL1        0.1003
     18 C         138.1020  141.0230  161.9122 C.ar    1  UNL1        0.0283
     19 C         137.9013  142.4681  162.2605 C.ar    1  UNL1        0.0782
     20 C         137.5791  143.0106  163.6214 C.3     1  UNL1        0.0537
     21 N         138.0796  143.2757  161.0091 N.ar    1  UNL1       -0.1684
     22 C         141.0817  143.3688  159.0645 C.3     1  UNL1        0.0342
     23 C         139.9886  143.2287  158.0468 C.ar    1  UNL1        0.0140
     24 C         140.2412  143.6082  156.6178 C.ar    1  UNL1        0.0004
     25 C         139.1482  143.4682  155.6002 C.ar    1  UNL1        0.0205
     26 C         137.8026  142.9486  156.0116 C.ar    1  UNL1        0.1006
     27 N         137.5500  142.5691  157.4406 N.ar    1  UNL1       -0.2254
     28 C         138.6430  142.7091  158.4582 C.ar    1  UNL1        0.1597
@<TRIPOS>BOND
     1    22    23    1
     2    23    24   ar
     3    24    25   ar
     4    25    26   ar
     5    26    27   ar
     6    27    28   ar
     7    28    16    1
     8    16    17   ar
     9    17    18   ar
    10    18     1    1
    11     1     2    1
    12     2     3    1
    13     3     4    1
    14     4     5    1
    15     5     6    1
    16     6     7    1
    17     5     8    1
    18     8     9    1
    19     9    10    1
    20    10    11   ar
    21    11    12   ar
    22    12    13   ar
    23    13    14   ar
    24    14    15   ar
    25    18    19   ar
    26    19    20    1
    27    19    21   ar
    28    28    23   ar
    29    21    16   ar
    30     7     2    1
    31    15    10   ar
    32    15     5    1
@<TRIPOS>MOLECULE
*****
 28 32 0 0 0
SMALL
GASTEIGER

@<TRIPOS>ATOM
      1 C         138.2045  139.3802  164.5258 C.3     1  UNL1        0.1019
      2 N         139.1954  139.0953  163.4363 N.3     1  UNL1       -0.2687
      3 C         139.2678  139.9911  162.2354 C.3     1  UNL1        0.0751
      4 C         140.2587  139.7062  161.1459 C.3     1  UNL1        0.0488
      5 C         141.1771  138.5255  161.2573 C.3     1  UNL1        0.1143
      6 C         141.1047  137.6297  162.4582 C.3     1  UNL1        0.0488
      7 C         140.1138  137.9146  163.5477 C.3     1  UNL1        0.0751
      8 O         142.1547  137.3881  161.2299 O.3     1  UNL1       -0.3497
      9 C         142.9462  137.4876  159.9596 C.3     1  UNL1        0.1686
     10 C         142.4577  138.6866  159.2019 C.ar    1  UNL1        0.0055
     11 C         142.8673  139.2771  157.8852 C.ar    1  UNL1       -0.0021
     12 C         142.1836  140.5090  157.3707 C.ar    1  UNL1       -0.0003
     13 C         141.0902  141.1505  158.1727 C.ar    1  UNL1       -0.0003
     14 C         140.6807  140.5599  159.4893 C.ar    1  UNL1       -0.0023
     15 C         141.3644  139.3280  160.0039 C.ar    1  UNL1        0.0005
     16 N         139.8816  140.5615  167.8208 N.ar    1  UNL1       -0.2116
     17 C         139.7170  140.6430  166.3321 C.ar    1  UNL1        0.1003
     18 C         138.6811  139.6375  165.9246 C.ar    1  UNL1        0.0283
     19 C         138.2055  138.9347  167.1614 C.ar    1  UNL1        0.0782
     20 C         137.1698  137.8511  167.2167 C.3     1  UNL1        0.0537
     21 N         138.9474  139.5057  168.3333 N.ar    1  UNL1       -0.1684
     22 C         142.6284  139.5382  168.4599 C.3     1  UNL1        0.0342
     23 C         142.1897  140.8787  168.9707 C.ar    1  UNL1        0.0140
     24 C         143.1243  141.7074  169.8011 C.ar    1  UNL1        0.0004
     25 C         142.6856  143.0478  170.3118 C.ar    1  UNL1        0.0205
     26 C         141.3123  143.5594  169.9923 C.ar    1  UNL1        0.1006
     27 N         140.3777  142.7306  169.1619 N.ar    1  UNL1       -0.2254
     28 C         140.8163  141.3903  168.6511 C.ar    1  UNL1        0.1597
@<TRIPOS>BOND
     1    22    23    1
     2    23    24   ar
     3    24    25   ar
     4    25    26   ar
     5    26    27   ar
     6    27    28   ar
     7    28    16    1
     8    16    17   ar
     9    17    18   ar
    10    18     1    1
    11     1     2    1
    12     2     3    1
    13     3     4    1
    14     4     5    1
    15     5     6    1
    16     6     7    1
    17     5     8    1
    18     8     9    1
    19     9    10    1
    20    10    11   ar
    21    11    12   ar
    22    12    13   ar
    23    13    14   ar
    24    14    15   ar
    25    18    19   ar
    26    19    20    1
    27    19    21   ar
    28    28    23   ar
    29    21    16   ar
    30     7     2    1
    31    15    10   ar
    32    15     5    1
@<TRIPOS>MOLECULE
*****
 28 32 0 0 0
SMALL
GASTEIGER

@<TRIPOS>ATOM
      1 C         144.5311  142.6307  164.7512 C.3     1  UNL1        0.1019
      2 N         143.4338  142.1326  165.6445 N.3     1  UNL1       -0.2687
      3 C         142.3819  141.2130  165.0989 C.3     1  UNL1        0.0751
      4 C         141.2847  140.7148  165.9922 C.3     1  UNL1        0.0488
      5 C         141.2395  141.1363  167.4311 C.3     1  UNL1        0.1143
      6 C         142.2914  142.0559  167.9767 C.3     1  UNL1        0.0488
      7 C         143.3886  142.5540  167.0834 C.3     1  UNL1        0.0751
      8 O         141.0648  141.4699  168.8831 O.3     1  UNL1       -0.3497
      9 C         139.8416  140.7569  169.3787 C.3     1  UNL1        0.1686
     10 C         139.2604  139.9826  168.2329 C.ar    1  UNL1        0.0055
     11 C         138.0560  139.0943  168.1301 C.ar    1  UNL1       -0.0021
     12 C         137.7156  138.4406  166.8238 C.ar    1  UNL1       -0.0003
     13 C         138.5795  138.6750  165.6201 C.ar    1  UNL1       -0.0003
     14 C         139.7838  139.5633  165.7229 C.ar    1  UNL1       -0.0023
     15 C         140.1242  140.2171  167.0293 C.ar    1  UNL1        0.0005
     16 N         144.2377  142.6813  160.8812 N.ar    1  UNL1       -0.2116
     17 C         144.7471  142.0612  162.1485 C.ar    1  UNL1        0.1003
     18 C         144.2570  142.8892  163.2993 C.ar    1  UNL1        0.0283
     19 C         143.4448  144.0210  162.7433 C.ar    1  UNL1        0.0782
     20 C         142.7640  145.0931  163.5415 C.3     1  UNL1        0.0537
     21 N         143.4328  143.8926  161.2488 N.ar    1  UNL1       -0.1684
     22 C         142.5259  140.4956  159.7442 C.3     1  UNL1        0.0342
     23 C         143.6332  141.0856  158.9220 C.ar    1  UNL1        0.0140
     24 C         143.8846  140.5828  157.5313 C.ar    1  UNL1        0.0004
     25 C         144.9918  141.1728  156.7092 C.ar    1  UNL1        0.0205
     26 C         145.8476  142.2656  157.2777 C.ar    1  UNL1        0.1006
     27 N         145.5963  142.7684  158.6684 N.ar    1  UNL1       -0.2254
     28 C         144.4891  142.1785  159.4906 C.ar    1  UNL1        0.1597
@<TRIPOS>BOND
     1    22    23    1
     2    23    24   ar
     3    24    25   ar
     4    25    26   ar
     5    26    27   ar
     6    27    28   ar
     7    28    16    1
     8    16    17   ar
     9    17    18   ar
    10    18     1    1
    11     1     2    1
    12     2     3    1
    13     3     4    1
    14     4     5    1
    15     5     6    1
    16     6     7    1
    17     5     8    1
    18     8     9    1
    19     9    10    1
    20    10    11   ar
    21    11    12   ar
    22    12    13   ar
    23    13    14   ar
    24    14    15   ar
    25    18    19   ar
    26    19    20    1
    27    19    21   ar
    28    28    23   ar
    29    21    16   ar
    30     7     2    1
    31    15    10   ar
    32    15     5    1
@<TRIPOS>MOLECULE
*****
 28 32 0 0 0
SMALL
GASTEIGER

@<TRIPOS>ATOM
      1 C         138.9209  139.8935  163.3034 C.3     1  UNL1        0.1019
      2 N         139.2905  140.0286  164.7509 N.3     1  UNL1       -0.2687
      3 C         140.5269  140.7823  165.1422 C.3     1  UNL1        0.0751
      4 C         140.8964  140.9173  166.5896 C.3     1  UNL1        0.0488
      5 C         140.0295  140.2986  167.6459 C.3     1  UNL1        0.1143
      6 C         138.7931  139.5449  167.2546 C.3     1  UNL1        0.0488
      7 C         138.4236  139.4099  165.8072 C.3     1  UNL1        0.0751
      8 O         139.2642  139.7369  168.8073 O.3     1  UNL1       -0.3497
      9 C         139.9909  140.1101  170.0654 C.3     1  UNL1        0.1686
     10 C         141.2054  140.9025  169.6814 C.ar    1  UNL1        0.0055
     11 C         142.2926  141.5331  170.5002 C.ar    1  UNL1       -0.0021
     12 C         143.4036  142.2800  169.8238 C.ar    1  UNL1       -0.0003
     13 C         143.4274  142.3965  168.3284 C.ar    1  UNL1       -0.0003
     14 C         142.3402  141.7660  167.5096 C.ar    1  UNL1       -0.0023
     15 C         141.2292  141.0190  168.1862 C.ar    1  UNL1        0.0005
     16 N         138.8705  142.6548  160.5761 N.ar    1  UNL1       -0.2116
     17 C         139.2346  141.2744  161.0363 C.ar    1  UNL1        0.1003
     18 C         138.7641  141.1184  162.4520 C.ar    1  UNL1        0.0283
     19 C         138.1091  142.4025  162.8668 C.ar    1  UNL1        0.0782
     20 C         137.4960  142.6872  164.2059 C.3     1  UNL1        0.0537
     21 N         138.1748  143.3521  161.7075 N.ar    1  UNL1       -0.1684
     22 C         140.9092  144.8349  160.2746 C.3     1  UNL1        0.0342
     23 C         140.1718  144.3260  159.0715 C.ar    1  UNL1        0.0140
     24 C         140.4537  144.9071  157.7177 C.ar    1  UNL1        0.0004
     25 C         139.7163  144.3982  156.5147 C.ar    1  UNL1        0.0205
     26 C         138.6970  143.3082  156.6655 C.ar    1  UNL1        0.1006
     27 N         138.4151  142.7271  158.0193 N.ar    1  UNL1       -0.2254
     28 C         139.1524  143.2359  159.2223 C.ar    1  UNL1        0.1597
@<TRIPOS>BOND
     1    22    23    1
     2    23    24   ar
     3    24    25   ar
     4    25    26   ar
     5    26    27   ar
     6    27    28   ar
     7    28    16    1
     8    16    17   ar
     9    17    18   ar
    10    18     1    1
    11     1     2    1
    12     2     3    1
    13     3     4    1
    14     4     5    1
    15     5     6    1
    16     6     7    1
    17     5     8    1
    18     8     9    1
    19     9    10    1
    20    10    11   ar
    21    11    12   ar
    22    12    13   ar
    23    13    14   ar
    24    14    15   ar
    25    18    19   ar
    26    19    20    1
    27    19    21   ar
    28    28    23   ar
    29    21    16   ar
    30     7     2    1
    31    15    10   ar
    32    15     5    1
@<TRIPOS>MOLECULE
*****
 28 32 0 0 0
SMALL
GASTEIGER

@<TRIPOS>ATOM
      1 C         141.9518  138.8143  156.8026 C.3     1  UNL1        0.1019
      2 N         141.9859  137.3391  156.5330 N.3     1  UNL1       -0.2687
      3 C         143.0209  136.4793  157.1958 C.3     1  UNL1        0.0751
      4 C         143.0550  135.0041  156.9262 C.3     1  UNL1        0.0488
      5 C         142.0540  134.3888  155.9938 C.3     1  UNL1        0.1143
      6 C         141.0189  135.2486  155.3310 C.3     1  UNL1        0.0488
      7 C         140.9849  136.7237  155.6006 C.3     1  UNL1        0.0751
      8 O         141.1230  133.6359  155.0903 O.3     1  UNL1       -0.3497
      9 C         141.5187  132.1892  155.1184 C.3     1  UNL1        0.1686
     10 C         142.6943  132.0481  156.0395 C.ar    1  UNL1        0.0055
     11 C         143.5062  130.8574  156.4554 C.ar    1  UNL1       -0.0021
     12 C         144.6489  131.0260  157.4122 C.ar    1  UNL1       -0.0003
     13 C         144.9798  132.3854  157.9533 C.ar    1  UNL1       -0.0003
     14 C         144.1679  133.5761  157.5373 C.ar    1  UNL1       -0.0023
     15 C         143.0251  133.4074  156.5804 C.ar    1  UNL1        0.0005
     16 N         142.7894  140.0527  160.3845 N.ar    1  UNL1       -0.2116
     17 C         143.2188  139.5443  159.0402 C.ar    1  UNL1        0.1003
     18 C         141.9868  139.3198  158.2144 C.ar    1  UNL1        0.0283
     19 C         140.7961  139.6894  159.0483 C.ar    1  UNL1        0.0782
     20 C         139.3612  139.6186  158.6169 C.3     1  UNL1        0.0537
     21 N         141.2921  140.1424  160.3895 N.ar    1  UNL1       -0.1684
     22 C         143.0798  138.1828  162.7125 C.3     1  UNL1        0.0342
     23 C         143.8431  139.4739  162.6878 C.ar    1  UNL1        0.0140
     24 C         144.7515  139.8301  163.8270 C.ar    1  UNL1        0.0004
     25 C         145.5147  141.1212  163.8023 C.ar    1  UNL1        0.0205
     26 C         145.3694  142.0560  162.6384 C.ar    1  UNL1        0.1006
     27 N         144.4610  141.6999  161.4991 N.ar    1  UNL1       -0.2254
     28 C         143.6978  140.4088  161.5238 C.ar    1  UNL1        0.1597
@<TRIPOS>BOND
     1    22    23    1
     2    23    24   ar
     3    24    25   ar
     4    25    26   ar
     5    26    27   ar
     6    27    28   ar
     7    28    16    1
     8    16    17   ar
     9    17    18   ar
    10    18     1    1
    11     1     2    1
    12     2     3    1
    13     3     4    1
    14     4     5    1
    15     5     6    1
    16     6     7    1
    17     5     8    1
    18     8     9    1
    19     9    10    1
    20    10    11   ar
    21    11    12   ar
    22    12    13   ar
    23    13    14   ar
    24    14    15   ar
    25    18    19   ar
    26    19    20    1
    27    19    21   ar
    28    28    23   ar
    29    21    16   ar
    30     7     2    1
    31    15    10   ar
    32    15     5    1
