@<TRIPOS>MOLECULE
*****
 34 38 0 0 0
SMALL
GASTEIGER

@<TRIPOS>ATOM
      1 C         142.2767  142.9451  158.8856 C.ar    1  UNL1        0.0674
      2 C         140.9312  142.3185  158.6686 C.ar    1  UNL1        0.1133
      3 N         139.8525  142.4833  159.6978 N.ar    1  UNL1       -0.2425
      4 C         140.1193  143.2746  160.9439 C.ar    1  UNL1        0.0825
      5 C         139.0405  143.4393  161.9730 C.ar    1  UNL1        0.0230
      6 C         139.3072  144.2306  163.2191 C.ar    1  UNL1        0.0741
      7 C         140.6528  144.8572  163.4360 C.ar    1  UNL1        0.0183
      8 C         141.7315  144.6925  162.4068 C.ar    1  UNL1        0.0463
      9 C         141.4648  143.9011  161.1608 C.ar    1  UNL1        0.0320
     10 C         142.5435  143.7364  160.1316 C.ar    1  UNL1        0.0188
     11 C         146.5919  142.2861  154.7690 C.3     1  UNL1        0.0897
     12 N         145.5131  142.4509  155.7981 N.3     1  UNL1       -0.2686
     13 C         144.1120  142.7740  155.3709 C.3     1  UNL1        0.0938
     14 C         143.0332  142.9387  156.4000 C.3     1  UNL1        0.1082
     15 N         143.3555  142.7803  157.8564 N.pl3   1  UNL1       -0.3034
     16 C         144.7566  142.4572  158.2836 C.3     1  UNL1        0.1082
     17 C         145.8354  142.2925  157.2545 C.3     1  UNL1        0.0938
     18 C         138.2285  144.3954  164.2482 C.3     1  UNL1        0.4187
     19 F         137.1497  144.5601  165.2774 F       1  UNL1       -0.1659
     20 F         137.2866  143.6073  163.3871 F       1  UNL1       -0.1659
     21 F         139.1705  145.1834  165.1094 F       1  UNL1       -0.1659
     22 N         143.0770  145.3190  162.6237 N.pl3   1  UNL1       -0.3290
     23 H         143.3847  146.0420  162.0306 H       1  UNL1        0.1471
     24 C         143.9536  144.8441  163.7444 C.3     1  UNL1        0.1143
     25 C         144.0486  143.3792  164.0531 C.ar    1  UNL1       -0.0011
     26 C         144.8945  142.4853  163.1957 C.ar    1  UNL1       -0.0025
     27 C         144.9895  141.0204  163.5044 C.ar    1  UNL1        0.0012
     28 C         144.2384  140.4496  164.6706 C.ar    1  UNL1        0.0177
     29 C         144.3333  138.9848  164.9794 C.ar    1  UNL1        0.0031
     30 C         143.5823  138.4139  166.1456 C.ar    1  UNL1        0.0207
     31 C         142.7363  139.3078  167.0030 C.ar    1  UNL1        0.0988
     32 N         142.6414  140.7727  166.6943 N.ar    1  UNL1       -0.2438
     33 C         143.3924  141.3436  165.5281 C.ar    1  UNL1        0.0810
     34 C         143.2975  142.8083  165.2193 C.ar    1  UNL1        0.0165
@<TRIPOS>BOND
     1    11    12    1
     2    12    13    1
     3    13    14    1
     4    14    15    1
     5    15     1    1
     6     1     2   ar
     7     2     3   ar
     8     3     4   ar
     9     4     5   ar
    10     5     6   ar
    11     6    18    1
    12    18    19    1
    13    18    20    1
    14    18    21    1
    15     6     7   ar
    16     7     8   ar
    17     8    22    1
    18    22    24    1
    19    24    25    1
    20    25    26   ar
    21    26    27   ar
    22    27    28   ar
    23    28    29   ar
    24    29    30   ar
    25    30    31   ar
    26    31    32   ar
    27    32    33   ar
    28    33    34   ar
    29     8     9   ar
    30     9    10   ar
    31    15    16    1
    32    16    17    1
    33    17    12    1
    34    10     1   ar
    35     9     4   ar
    36    34    25   ar
    37    33    28   ar
    38    22    23    1
@<TRIPOS>MOLECULE
*****
 34 38 0 0 0
SMALL
GASTEIGER

@<TRIPOS>ATOM
      1 C         141.8644  139.4198  161.2718 C.ar    1  UNL1        0.0674
      2 C         141.9559  137.9526  161.5696 C.ar    1  UNL1        0.1133
      3 N         141.1521  137.3633  162.6905 N.ar    1  UNL1       -0.2425
      4 C         140.2567  138.2412  163.5136 C.ar    1  UNL1        0.0825
      5 C         139.4529  137.6519  164.6346 C.ar    1  UNL1        0.0230
      6 C         138.5575  138.5298  165.4577 C.ar    1  UNL1        0.0741
      7 C         138.4661  139.9972  165.1599 C.ar    1  UNL1        0.0183
      8 C         139.2699  140.5865  164.0389 C.ar    1  UNL1        0.0463
      9 C         140.1653  139.7085  163.2158 C.ar    1  UNL1        0.0320
     10 C         140.9691  140.2978  162.0949 C.ar    1  UNL1        0.0188
     11 C         145.0798  141.7772  156.7879 C.3     1  UNL1        0.0897
     12 N         144.2760  141.1879  157.9089 N.3     1  UNL1       -0.2686
     13 C         144.1762  141.9093  159.2202 C.3     1  UNL1        0.0938
     14 C         143.3723  141.3199  160.3412 C.3     1  UNL1        0.1082
     15 N         142.6683  140.0092  160.1508 N.pl3   1  UNL1       -0.3034
     16 C         142.7681  139.2878  158.8395 C.3     1  UNL1        0.1082
     17 C         143.5719  139.8771  157.7185 C.3     1  UNL1        0.0938
     18 C         137.7537  137.9406  166.5786 C.3     1  UNL1        0.4187
     19 F         136.9498  137.3513  167.6996 F       1  UNL1       -0.1659
     20 F         137.5268  139.3138  167.1378 F       1  UNL1       -0.1659
     21 F         137.9806  136.5673  166.0194 F       1  UNL1       -0.1659
     22 N         139.1784  142.0537  163.7411 N.pl3   1  UNL1       -0.3290
     23 H         138.3900  142.4129  163.2736 H       1  UNL1        0.1471
     24 C         140.2882  142.9738  164.1556 C.3     1  UNL1        0.1143
     25 C         141.0195  142.7343  165.4433 C.ar    1  UNL1       -0.0011
     26 C         142.4947  142.4634  165.4288 C.ar    1  UNL1       -0.0025
     27 C         143.2260  142.2239  166.7164 C.ar    1  UNL1        0.0012
     28 C         142.4820  142.2554  168.0185 C.ar    1  UNL1        0.0177
     29 C         143.2133  142.0159  169.3061 C.ar    1  UNL1        0.0031
     30 C         142.4693  142.0474  170.6082 C.ar    1  UNL1        0.0207
     31 C         140.9940  142.3183  170.6227 C.ar    1  UNL1        0.0988
     32 N         140.2627  142.5578  169.3351 N.ar    1  UNL1       -0.2438
     33 C         141.0067  142.5263  168.0330 C.ar    1  UNL1        0.0810
     34 C         140.2755  142.7658  166.7454 C.ar    1  UNL1        0.0165
@<TRIPOS>BOND
     1    11    12    1
     2    12    13    1
     3    13    14    1
     4    14    15    1
     5    15     1    1
     6     1     2   ar
     7     2     3   ar
     8     3     4   ar
     9     4     5   ar
    10     5     6   ar
    11     6    18    1
    12    18    19    1
    13    18    20    1
    14    18    21    1
    15     6     7   ar
    16     7     8   ar
    17     8    22    1
    18    22    24    1
    19    24    25    1
    20    25    26   ar
    21    26    27   ar
    22    27    28   ar
    23    28    29   ar
    24    29    30   ar
    25    30    31   ar
    26    31    32   ar
    27    32    33   ar
    28    33    34   ar
    29     8     9   ar
    30     9    10   ar
    31    15    16    1
    32    16    17    1
    33    17    12    1
    34    10     1   ar
    35     9     4   ar
    36    34    25   ar
    37    33    28   ar
    38    22    23    1
@<TRIPOS>MOLECULE
*****
 34 38 0 0 0
SMALL
GASTEIGER

@<TRIPOS>ATOM
      1 C         139.7113  142.3544  163.5706 C.ar    1  UNL1        0.0674
      2 C         140.5052  143.4119  164.2786 C.ar    1  UNL1        0.1133
      3 N         140.7751  143.2886  165.7490 N.ar    1  UNL1       -0.2425
      4 C         140.2512  142.1078  166.5112 C.ar    1  UNL1        0.0825
      5 C         140.5211  141.9845  167.9816 C.ar    1  UNL1        0.0230
      6 C         139.9972  140.8036  168.7439 C.ar    1  UNL1        0.0741
      7 C         139.2033  139.7461  168.0358 C.ar    1  UNL1        0.0183
      8 C         138.9334  139.8694  166.5655 C.ar    1  UNL1        0.0463
      9 C         139.4573  141.0502  165.8032 C.ar    1  UNL1        0.0320
     10 C         139.1874  141.1735  164.3329 C.ar    1  UNL1        0.0188
     11 C         138.6315  142.8476  157.6892 C.3     1  UNL1        0.0897
     12 N         138.9015  142.7242  159.1595 N.3     1  UNL1       -0.2686
     13 C         138.2891  141.6011  159.9428 C.3     1  UNL1        0.0938
     14 C         138.5591  141.4778  161.4132 C.3     1  UNL1        0.1082
     15 N         139.4414  142.4777  162.1002 N.pl3   1  UNL1       -0.3034
     16 C         140.0537  143.6008  161.3168 C.3     1  UNL1        0.1082
     17 C         139.7838  143.7241  159.8465 C.3     1  UNL1        0.0938
     18 C         140.2671  140.6803  170.2143 C.3     1  UNL1        0.4187
     19 F         140.5370  140.5570  171.6847 F       1  UNL1       -0.1659
     20 F         139.5479  141.9745  170.4548 F       1  UNL1       -0.1659
     21 F         140.9863  139.3862  169.9737 F       1  UNL1       -0.1659
     22 N         138.1395  138.8118  165.8575 N.pl3   1  UNL1       -0.3290
     23 H         137.1599  138.8896  165.7969 H       1  UNL1        0.1471
     24 C         138.8381  137.6359  165.2417 C.3     1  UNL1        0.1143
     25 C         139.5523  137.7895  163.9316 C.ar    1  UNL1       -0.0011
     26 C         138.7691  137.8620  162.6544 C.ar    1  UNL1       -0.0025
     27 C         139.4833  138.0156  161.3443 C.ar    1  UNL1        0.0012
     28 C         140.9808  138.0967  161.3115 C.ar    1  UNL1        0.0177
     29 C         141.6950  138.2503  160.0014 C.ar    1  UNL1        0.0031
     30 C         143.1925  138.3314  159.9686 C.ar    1  UNL1        0.0207
     31 C         143.9757  138.2589  161.2458 C.ar    1  UNL1        0.0988
     32 N         143.2614  138.1053  162.5559 N.ar    1  UNL1       -0.2438
     33 C         141.7640  138.0242  162.5888 C.ar    1  UNL1        0.0810
     34 C         141.0498  137.8706  163.8988 C.ar    1  UNL1        0.0165
@<TRIPOS>BOND
     1    11    12    1
     2    12    13    1
     3    13    14    1
     4    14    15    1
     5    15     1    1
     6     1     2   ar
     7     2     3   ar
     8     3     4   ar
     9     4     5   ar
    10     5     6   ar
    11     6    18    1
    12    18    19    1
    13    18    20    1
    14    18    21    1
    15     6     7   ar
    16     7     8   ar
    17     8    22    1
    18    22    24    1
    19    24    25    1
    20    25    26   ar
    21    26    27   ar
    22    27    28   ar
    23    28    29   ar
    24    29    30   ar
    25    30    31   ar
    26    31    32   ar
    27    32    33   ar
    28    33    34   ar
    29     8     9   ar
    30     9    10   ar
    31    15    16    1
    32    16    17    1
    33    17    12    1
    34    10     1   ar
    35     9     4   ar
    36    34    25   ar
    37    33    28   ar
    38    22    23    1
@<TRIPOS>MOLECULE
*****
 34 38 0 0 0
SMALL
GASTEIGER

@<TRIPOS>ATOM
      1 C         138.8448  141.3155  159.2658 C.ar    1  UNL1        0.0674
      2 C         139.2620  142.7399  159.0496 C.ar    1  UNL1        0.1133
      3 N         139.2447  143.7086  160.1947 N.ar    1  UNL1       -0.2425
      4 C         138.8102  143.2527  161.5561 C.ar    1  UNL1        0.0825
      5 C         138.7929  144.2214  162.7013 C.ar    1  UNL1        0.0230
      6 C         138.3584  143.7656  164.0627 C.ar    1  UNL1        0.0741
      7 C         137.9411  142.3411  164.2789 C.ar    1  UNL1        0.0183
      8 C         137.9584  141.3724  163.1338 C.ar    1  UNL1        0.0463
      9 C         138.3929  141.8283  161.7724 C.ar    1  UNL1        0.0320
     10 C         138.4102  140.8596  160.6272 C.ar    1  UNL1        0.0188
     11 C         138.9139  137.4406  154.6853 C.3     1  UNL1        0.0897
     12 N         138.8966  138.4093  155.8304 N.3     1  UNL1       -0.2686
     13 C         138.1350  139.6962  155.7127 C.3     1  UNL1        0.0938
     14 C         138.1177  140.6649  156.8579 C.3     1  UNL1        0.1082
     15 N         138.8620  140.3467  158.1207 N.pl3   1  UNL1       -0.3034
     16 C         139.6237  139.0599  158.2383 C.3     1  UNL1        0.1082
     17 C         139.6410  138.0912  157.0933 C.3     1  UNL1        0.0938
     18 C         138.3411  144.7342  165.2079 C.3     1  UNL1        0.4187
     19 F         138.3237  145.7029  166.3531 F       1  UNL1       -0.1659
     20 F         136.8954  144.4185  165.4531 F       1  UNL1       -0.1659
     21 F         139.7868  145.0500  164.9626 F       1  UNL1       -0.1659
     22 N         137.5412  139.9480  163.3501 N.pl3   1  UNL1       -0.3290
     23 H         136.6303  139.6603  163.1120 H       1  UNL1        0.1471
     24 C         138.5119  138.9618  163.9290 C.3     1  UNL1        0.1143
     25 C         139.3345  139.3340  165.1270 C.ar    1  UNL1       -0.0011
     26 C         140.7938  139.6424  164.9683 C.ar    1  UNL1       -0.0025
     27 C         141.6163  140.0146  166.1663 C.ar    1  UNL1        0.0012
     28 C         140.9794  140.0783  167.5229 C.ar    1  UNL1        0.0177
     29 C         141.8019  140.4504  168.7208 C.ar    1  UNL1        0.0031
     30 C         141.1650  140.5141  170.0774 C.ar    1  UNL1        0.0207
     31 C         139.7057  140.2056  170.2361 C.ar    1  UNL1        0.0988
     32 N         138.8832  139.8334  169.0381 N.ar    1  UNL1       -0.2438
     33 C         139.5201  139.7698  167.6815 C.ar    1  UNL1        0.0810
     34 C         138.6976  139.3976  166.4836 C.ar    1  UNL1        0.0165
@<TRIPOS>BOND
     1    11    12    1
     2    12    13    1
     3    13    14    1
     4    14    15    1
     5    15     1    1
     6     1     2   ar
     7     2     3   ar
     8     3     4   ar
     9     4     5   ar
    10     5     6   ar
    11     6    18    1
    12    18    19    1
    13    18    20    1
    14    18    21    1
    15     6     7   ar
    16     7     8   ar
    17     8    22    1
    18    22    24    1
    19    24    25    1
    20    25    26   ar
    21    26    27   ar
    22    27    28   ar
    23    28    29   ar
    24    29    30   ar
    25    30    31   ar
    26    31    32   ar
    27    32    33   ar
    28    33    34   ar
    29     8     9   ar
    30     9    10   ar
    31    15    16    1
    32    16    17    1
    33    17    12    1
    34    10     1   ar
    35     9     4   ar
    36    34    25   ar
    37    33    28   ar
    38    22    23    1
@<TRIPOS>MOLECULE
*****
 34 38 0 0 0
SMALL
GASTEIGER

@<TRIPOS>ATOM
      1 C         140.8824  144.0710  158.9750 C.ar    1  UNL1        0.0674
      2 C         142.2647  143.5291  158.7611 C.ar    1  UNL1        0.1133
      3 N         143.2261  143.4522  159.9098 N.ar    1  UNL1       -0.2425
      4 C         142.8053  143.9171  161.2725 C.ar    1  UNL1        0.0825
      5 C         143.7668  143.8401  162.4213 C.ar    1  UNL1        0.0230
      6 C         143.3460  144.3049  163.7839 C.ar    1  UNL1        0.0741
      7 C         141.9637  144.8468  163.9978 C.ar    1  UNL1        0.0183
      8 C         141.0023  144.9238  162.8490 C.ar    1  UNL1        0.0463
      9 C         141.4231  144.4589  161.4864 C.ar    1  UNL1        0.0320
     10 C         140.4616  144.5359  160.3376 C.ar    1  UNL1        0.0188
     11 C         137.0365  144.3790  154.3800 C.3     1  UNL1        0.0897
     12 N         137.9979  144.3020  155.5287 N.3     1  UNL1       -0.2686
     13 C         137.9545  143.1316  156.4659 C.3     1  UNL1        0.0938
     14 C         138.9160  143.0546  157.6147 C.3     1  UNL1        0.1082
     15 N         139.9209  144.1480  157.8262 N.pl3   1  UNL1       -0.3034
     16 C         139.9643  145.3183  156.8890 C.3     1  UNL1        0.1082
     17 C         139.0029  145.3954  155.7403 C.3     1  UNL1        0.0938
     18 C         144.3075  144.2280  164.9327 C.3     1  UNL1        0.4187
     19 F         145.2690  144.1510  166.0815 F       1  UNL1       -0.1659
     20 F         144.3025  142.7311  164.8366 F       1  UNL1       -0.1659
     21 F         144.3125  145.7249  165.0288 F       1  UNL1       -0.1659
     22 N         139.6201  145.4656  163.0630 N.pl3   1  UNL1       -0.3290
     23 H         139.3689  146.3380  162.6820 H       1  UNL1        0.1471
     24 C         138.6205  144.6784  163.8574 C.3     1  UNL1        0.1143
     25 C         138.6940  143.1803  163.8815 C.ar    1  UNL1       -0.0011
     26 C         139.2634  142.4765  165.0774 C.ar    1  UNL1       -0.0025
     27 C         139.3370  140.9785  165.1015 C.ar    1  UNL1        0.0012
     28 C         138.8411  140.1843  163.9296 C.ar    1  UNL1        0.0177
     29 C         138.9146  138.6863  163.9537 C.ar    1  UNL1        0.0031
     30 C         138.4186  137.8921  162.7818 C.ar    1  UNL1        0.0207
     31 C         137.8492  138.5959  161.5858 C.ar    1  UNL1        0.0988
     32 N         137.7757  140.0940  161.5617 N.ar    1  UNL1       -0.2438
     33 C         138.2716  140.8882  162.7336 C.ar    1  UNL1        0.0810
     34 C         138.1981  142.3861  162.7096 C.ar    1  UNL1        0.0165
@<TRIPOS>BOND
     1    11    12    1
     2    12    13    1
     3    13    14    1
     4    14    15    1
     5    15     1    1
     6     1     2   ar
     7     2     3   ar
     8     3     4   ar
     9     4     5   ar
    10     5     6   ar
    11     6    18    1
    12    18    19    1
    13    18    20    1
    14    18    21    1
    15     6     7   ar
    16     7     8   ar
    17     8    22    1
    18    22    24    1
    19    24    25    1
    20    25    26   ar
    21    26    27   ar
    22    27    28   ar
    23    28    29   ar
    24    29    30   ar
    25    30    31   ar
    26    31    32   ar
    27    32    33   ar
    28    33    34   ar
    29     8     9   ar
    30     9    10   ar
    31    15    16    1
    32    16    17    1
    33    17    12    1
    34    10     1   ar
    35     9     4   ar
    36    34    25   ar
    37    33    28   ar
    38    22    23    1
@<TRIPOS>MOLECULE
*****
 34 38 0 0 0
SMALL
GASTEIGER

@<TRIPOS>ATOM
      1 C         139.5960  142.5950  159.0172 C.ar    1  UNL1        0.0674
      2 C         140.3544  141.3311  158.7390 C.ar    1  UNL1        0.1133
      3 N         140.3358  140.2105  159.7359 N.ar    1  UNL1       -0.2425
      4 C         139.5589  140.3538  161.0110 C.ar    1  UNL1        0.0825
      5 C         139.5404  139.2331  162.0079 C.ar    1  UNL1        0.0230
      6 C         138.7635  139.3764  163.2830 C.ar    1  UNL1        0.0741
      7 C         138.0051  140.6404  163.5612 C.ar    1  UNL1        0.0183
      8 C         138.0236  141.7610  162.5643 C.ar    1  UNL1        0.0463
      9 C         138.8006  141.6177  161.2892 C.ar    1  UNL1        0.0320
     10 C         138.8191  142.7383  160.2923 C.ar    1  UNL1        0.0188
     11 C         139.6701  147.0777  155.0296 C.3     1  UNL1        0.0897
     12 N         139.6516  145.9570  156.0264 N.3     1  UNL1       -0.2686
     13 C         138.9598  144.6684  155.6935 C.3     1  UNL1        0.0938
     14 C         138.9413  143.5477  156.6904 C.3     1  UNL1        0.1082
     15 N         139.6145  143.7157  158.0202 N.pl3   1  UNL1       -0.3034
     16 C         140.3063  145.0043  158.3532 C.3     1  UNL1        0.1082
     17 C         140.3249  146.1249  157.3563 C.3     1  UNL1        0.0938
     18 C         138.7450  138.2558  164.2799 C.3     1  UNL1        0.4187
     19 F         138.7264  137.1351  165.2769 F       1  UNL1       -0.1659
     20 F         139.3276  137.3318  163.2520 F       1  UNL1       -0.1659
     21 F         138.1623  139.1799  165.3078 F       1  UNL1       -0.1659
     22 N         137.2653  143.0249  162.8425 N.pl3   1  UNL1       -0.3290
     23 H         136.3744  143.1617  162.4463 H       1  UNL1        0.1471
     24 C         137.8642  144.0803  163.7242 C.3     1  UNL1        0.1143
     25 C         139.3538  144.1776  163.8718 C.ar    1  UNL1       -0.0011
     26 C         140.1282  145.1530  163.0360 C.ar    1  UNL1       -0.0025
     27 C         141.6178  145.2503  163.1836 C.ar    1  UNL1        0.0012
     28 C         142.3329  144.3721  164.1672 C.ar    1  UNL1        0.0177
     29 C         143.8224  144.4693  164.3149 C.ar    1  UNL1        0.0031
     30 C         144.5375  143.5911  165.2984 C.ar    1  UNL1        0.0207
     31 C         143.7631  142.6156  166.1342 C.ar    1  UNL1        0.0988
     32 N         142.2735  142.5183  165.9866 N.ar    1  UNL1       -0.2438
     33 C         141.5584  143.3966  165.0030 C.ar    1  UNL1        0.0810
     34 C         140.0689  143.2993  164.8554 C.ar    1  UNL1        0.0165
@<TRIPOS>BOND
     1    11    12    1
     2    12    13    1
     3    13    14    1
     4    14    15    1
     5    15     1    1
     6     1     2   ar
     7     2     3   ar
     8     3     4   ar
     9     4     5   ar
    10     5     6   ar
    11     6    18    1
    12    18    19    1
    13    18    20    1
    14    18    21    1
    15     6     7   ar
    16     7     8   ar
    17     8    22    1
    18    22    24    1
    19    24    25    1
    20    25    26   ar
    21    26    27   ar
    22    27    28   ar
    23    28    29   ar
    24    29    30   ar
    25    30    31   ar
    26    31    32   ar
    27    32    33   ar
    28    33    34   ar
    29     8     9   ar
    30     9    10   ar
    31    15    16    1
    32    16    17    1
    33    17    12    1
    34    10     1   ar
    35     9     4   ar
    36    34    25   ar
    37    33    28   ar
    38    22    23    1
@<TRIPOS>MOLECULE
*****
 34 38 0 0 0
SMALL
GASTEIGER

@<TRIPOS>ATOM
      1 C         141.4119  139.2618  165.6928 C.ar    1  UNL1        0.0674
      2 C         140.2587  138.5324  165.0699 C.ar    1  UNL1        0.1133
      3 N         140.3326  138.0977  163.6362 N.ar    1  UNL1       -0.2425
      4 C         141.5597  138.3925  162.8254 C.ar    1  UNL1        0.0825
      5 C         141.6336  137.9578  161.3917 C.ar    1  UNL1        0.0230
      6 C         142.8607  138.2525  160.5809 C.ar    1  UNL1        0.0741
      7 C         144.0139  138.9820  161.2039 C.ar    1  UNL1        0.0183
      8 C         143.9400  139.4166  162.6376 C.ar    1  UNL1        0.0463
      9 C         142.7129  139.1219  163.4484 C.ar    1  UNL1        0.0320
     10 C         142.6390  139.5566  164.8821 C.ar    1  UNL1        0.0188
     11 C         141.1164  141.0006  171.4278 C.3     1  UNL1        0.0897
     12 N         141.1902  140.5659  169.9941 N.3     1  UNL1       -0.2686
     13 C         139.9486  140.5420  169.1527 C.3     1  UNL1        0.0938
     14 C         140.0225  140.1072  167.7190 C.3     1  UNL1        0.1082
     15 N         141.3380  139.6965  167.1266 N.pl3   1  UNL1       -0.3034
     16 C         142.5795  139.7205  167.9680 C.3     1  UNL1        0.1082
     17 C         142.5057  140.1552  169.4017 C.3     1  UNL1        0.0938
     18 C         142.9347  137.8178  159.1472 C.3     1  UNL1        0.4187
     19 F         143.0086  137.3832  157.7134 F       1  UNL1       -0.1659
     20 F         142.7075  139.2334  158.7063 F       1  UNL1       -0.1659
     21 F         143.1618  136.4022  159.5881 F       1  UNL1       -0.1659
     22 N         145.0932  140.1461  163.2606 N.pl3   1  UNL1       -0.3290
     23 H         145.6933  139.6769  163.8843 H       1  UNL1        0.1471
     24 C         145.3321  141.5903  162.9332 C.3     1  UNL1        0.1143
     25 C         144.1847  142.5566  162.9223 C.ar    1  UNL1       -0.0011
     26 C         143.6128  143.0563  164.2158 C.ar    1  UNL1       -0.0025
     27 C         142.4654  144.0226  164.2049 C.ar    1  UNL1        0.0012
     28 C         141.8902  144.4891  162.9005 C.ar    1  UNL1        0.0177
     29 C         140.7429  145.4553  162.8896 C.ar    1  UNL1        0.0031
     30 C         140.1676  145.9218  161.5852 C.ar    1  UNL1        0.0207
     31 C         140.7396  145.4221  160.2918 C.ar    1  UNL1        0.0988
     32 N         141.8869  144.4558  160.3026 N.ar    1  UNL1       -0.2438
     33 C         142.4622  143.9893  161.6070 C.ar    1  UNL1        0.0810
     34 C         143.6094  143.0231  161.6180 C.ar    1  UNL1        0.0165
@<TRIPOS>BOND
     1    11    12    1
     2    12    13    1
     3    13    14    1
     4    14    15    1
     5    15     1    1
     6     1     2   ar
     7     2     3   ar
     8     3     4   ar
     9     4     5   ar
    10     5     6   ar
    11     6    18    1
    12    18    19    1
    13    18    20    1
    14    18    21    1
    15     6     7   ar
    16     7     8   ar
    17     8    22    1
    18    22    24    1
    19    24    25    1
    20    25    26   ar
    21    26    27   ar
    22    27    28   ar
    23    28    29   ar
    24    29    30   ar
    25    30    31   ar
    26    31    32   ar
    27    32    33   ar
    28    33    34   ar
    29     8     9   ar
    30     9    10   ar
    31    15    16    1
    32    16    17    1
    33    17    12    1
    34    10     1   ar
    35     9     4   ar
    36    34    25   ar
    37    33    28   ar
    38    22    23    1
@<TRIPOS>MOLECULE
*****
 34 38 0 0 0
SMALL
GASTEIGER

@<TRIPOS>ATOM
      1 C         142.1029  142.9136  165.2059 C.ar    1  UNL1        0.0674
      2 C         143.3474  142.5401  164.4566 C.ar    1  UNL1        0.1133
      3 N         143.4832  142.8927  163.0050 N.ar    1  UNL1       -0.2425
      4 C         142.3743  143.6188  162.3027 C.ar    1  UNL1        0.0825
      5 C         142.5101  143.9714  160.8510 C.ar    1  UNL1        0.0230
      6 C         141.4012  144.6975  160.1487 C.ar    1  UNL1        0.0741
      7 C         140.1566  145.0710  160.8981 C.ar    1  UNL1        0.0183
      8 C         140.0209  144.7184  162.3497 C.ar    1  UNL1        0.0463
      9 C         141.1297  143.9923  163.0520 C.ar    1  UNL1        0.0320
     10 C         140.9940  143.6397  164.5036 C.ar    1  UNL1        0.0188
     11 C         141.5599  141.5033  171.0125 C.3     1  UNL1        0.0897
     12 N         141.6956  141.8558  169.5609 N.3     1  UNL1       -0.2686
     13 C         140.4704  142.1005  168.7308 C.3     1  UNL1        0.0938
     14 C         140.6062  142.4531  167.2791 C.3     1  UNL1        0.1082
     15 N         141.9671  142.5610  166.6576 N.pl3   1  UNL1       -0.3034
     16 C         143.1922  142.3163  167.4877 C.3     1  UNL1        0.1082
     17 C         143.0565  141.9638  168.9393 C.3     1  UNL1        0.0938
     18 C         141.5370  145.0501  158.6971 C.3     1  UNL1        0.4187
     19 F         141.6727  145.4026  157.2454 F       1  UNL1       -0.1659
     20 F         142.7902  144.2299  158.6150 F       1  UNL1       -0.1659
     21 F         140.2838  145.8702  158.7791 F       1  UNL1       -0.1659
     22 N         138.7763  145.0919  163.0990 N.pl3   1  UNL1       -0.3290
     23 H         138.7215  145.9596  163.5608 H       1  UNL1        0.1471
     24 C         137.6152  144.1434  163.1446 C.3     1  UNL1        0.1143
     25 C         137.8566  142.6630  163.1682 C.ar    1  UNL1       -0.0011
     26 C         137.9846  141.9034  161.8812 C.ar    1  UNL1       -0.0025
     27 C         138.2259  140.4231  161.9047 C.ar    1  UNL1        0.0012
     28 C         138.3393  139.7025  163.2154 C.ar    1  UNL1        0.0177
     29 C         138.5806  138.2222  163.2390 C.ar    1  UNL1        0.0031
     30 C         138.6940  137.5016  164.5497 C.ar    1  UNL1        0.0207
     31 C         138.5660  138.2612  165.8368 C.ar    1  UNL1        0.0988
     32 N         138.3246  139.7416  165.8132 N.ar    1  UNL1       -0.2438
     33 C         138.2113  140.4622  164.5025 C.ar    1  UNL1        0.0810
     34 C         137.9699  141.9424  164.4789 C.ar    1  UNL1        0.0165
@<TRIPOS>BOND
     1    11    12    1
     2    12    13    1
     3    13    14    1
     4    14    15    1
     5    15     1    1
     6     1     2   ar
     7     2     3   ar
     8     3     4   ar
     9     4     5   ar
    10     5     6   ar
    11     6    18    1
    12    18    19    1
    13    18    20    1
    14    18    21    1
    15     6     7   ar
    16     7     8   ar
    17     8    22    1
    18    22    24    1
    19    24    25    1
    20    25    26   ar
    21    26    27   ar
    22    27    28   ar
    23    28    29   ar
    24    29    30   ar
    25    30    31   ar
    26    31    32   ar
    27    32    33   ar
    28    33    34   ar
    29     8     9   ar
    30     9    10   ar
    31    15    16    1
    32    16    17    1
    33    17    12    1
    34    10     1   ar
    35     9     4   ar
    36    34    25   ar
    37    33    28   ar
    38    22    23    1
@<TRIPOS>MOLECULE
*****
 34 38 0 0 0
SMALL
GASTEIGER

@<TRIPOS>ATOM
      1 C         141.3484  138.7667  160.0465 C.ar    1  UNL1        0.0674
      2 C         139.8957  138.4597  159.8333 C.ar    1  UNL1        0.1133
      3 N         138.9817  138.3021  161.0122 N.ar    1  UNL1       -0.2425
      4 C         139.5204  138.4514  162.4041 C.ar    1  UNL1        0.0825
      5 C         138.6062  138.2937  163.5830 C.ar    1  UNL1        0.0230
      6 C         139.1449  138.4430  164.9749 C.ar    1  UNL1        0.0741
      7 C         140.5976  138.7501  165.1881 C.ar    1  UNL1        0.0183
      8 C         141.5117  138.9077  164.0092 C.ar    1  UNL1        0.0463
      9 C         140.9730  138.7584  162.6173 C.ar    1  UNL1        0.0320
     10 C         141.8870  138.9161  161.4385 C.ar    1  UNL1        0.0188
     11 C         145.0047  139.3974  155.3312 C.3     1  UNL1        0.0897
     12 N         144.0906  139.2398  156.5100 N.3     1  UNL1       -0.2686
     13 C         144.0769  140.2780  157.5925 C.3     1  UNL1        0.0938
     14 C         143.1628  140.1203  158.7714 C.3     1  UNL1        0.1082
     15 N         142.2625  138.9244  158.8676 N.pl3   1  UNL1       -0.3034
     16 C         142.2762  137.8862  157.7851 C.3     1  UNL1        0.1082
     17 C         143.1903  138.0439  156.6063 C.3     1  UNL1        0.0938
     18 C         138.2309  138.2854  166.1538 C.3     1  UNL1        0.4187
     19 F         137.3168  138.1277  167.3327 F       1  UNL1       -0.1659
     20 F         138.2722  139.7670  166.3840 F       1  UNL1       -0.1659
     21 F         138.1896  136.8037  165.9236 F       1  UNL1       -0.1659
     22 N         142.9643  139.2147  164.2224 N.pl3   1  UNL1       -0.3290
     23 H         143.6364  138.5008  164.1342 H       1  UNL1        0.1471
     24 C         143.3930  140.6095  164.5700 C.3     1  UNL1        0.1143
     25 C         142.4899  141.7687  164.2686 C.ar    1  UNL1       -0.0011
     26 C         141.5913  142.3170  165.3371 C.ar    1  UNL1       -0.0025
     27 C         140.6882  143.4762  165.0358 C.ar    1  UNL1        0.0012
     28 C         140.6838  144.0871  163.6658 C.ar    1  UNL1        0.0177
     29 C         139.7808  145.2463  163.3644 C.ar    1  UNL1        0.0031
     30 C         139.7764  145.8572  161.9944 C.ar    1  UNL1        0.0207
     31 C         140.6750  145.3089  160.9259 C.ar    1  UNL1        0.0988
     32 N         141.5781  144.1497  161.2272 N.ar    1  UNL1       -0.2438
     33 C         141.5825  143.5388  162.5972 C.ar    1  UNL1        0.0810
     34 C         142.4855  142.3796  162.8986 C.ar    1  UNL1        0.0165
@<TRIPOS>BOND
     1    11    12    1
     2    12    13    1
     3    13    14    1
     4    14    15    1
     5    15     1    1
     6     1     2   ar
     7     2     3   ar
     8     3     4   ar
     9     4     5   ar
    10     5     6   ar
    11     6    18    1
    12    18    19    1
    13    18    20    1
    14    18    21    1
    15     6     7   ar
    16     7     8   ar
    17     8    22    1
    18    22    24    1
    19    24    25    1
    20    25    26   ar
    21    26    27   ar
    22    27    28   ar
    23    28    29   ar
    24    29    30   ar
    25    30    31   ar
    26    31    32   ar
    27    32    33   ar
    28    33    34   ar
    29     8     9   ar
    30     9    10   ar
    31    15    16    1
    32    16    17    1
    33    17    12    1
    34    10     1   ar
    35     9     4   ar
    36    34    25   ar
    37    33    28   ar
    38    22    23    1
