@<TRIPOS>MOLECULE
*****
 40 44 0 0 0
SMALL
GASTEIGER

@<TRIPOS>ATOM
      1 C         139.1135  141.3101  161.9391 C.2     1  UNL1        0.1077
      2 C         139.0782  140.9998  160.4720 C.2     1  UNL1        0.0757
      3 N         139.9242  140.0309  159.7004 N.am    1  UNL1       -0.2534
      4 C         139.6428  139.9491  158.2293 C.2     1  UNL1        0.2528
      5 O         138.5715  140.8055  157.6219 O.2     1  UNL1       -0.2696
      6 C         141.0145  139.1329  160.2053 C.3     1  UNL1        0.1025
      7 C         141.5280  138.9820  161.6065 C.3     1  UNL1        0.0390
      8 C         142.4181  138.4000  162.6644 C.3     1  UNL1        0.0061
      9 C         142.3741  138.0131  160.8350 C.3     1  UNL1        0.0061
     10 C         141.0781  139.6920  162.8490 C.2     1  UNL1       -0.0022
     11 C         140.0035  140.7280  162.9970 C.2     1  UNL1        0.0845
     12 N         139.9392  141.1259  164.4418 N.2     1  UNL1       -0.2493
     13 C         140.9740  140.3358  165.1868 C.2     1  UNL1        0.0654
     14 C         141.3662  140.3088  166.6343 C.3     1  UNL1        0.1022
     15 C         142.4623  139.3956  167.0974 C.2     1  UNL1        0.1236
     16 F         142.8546  139.3686  168.5450 F       1  UNL1       -0.2085
     17 C         143.1662  138.5093  166.1130 C.2     1  UNL1        0.0256
     18 C         142.7740  138.5363  164.6655 C.2     1  UNL1        0.0029
     19 C         141.6779  139.4495  164.2024 C.2     1  UNL1        0.0115
     20 C         140.4327  139.0110  157.3655 C.ar    1  UNL1        0.0541
     21 C         141.7946  139.4075  156.8777 C.ar    1  UNL1        0.0076
     22 C         142.5845  138.4694  156.0140 C.ar    1  UNL1        0.0370
     23 C         142.0124  137.1347  155.6381 C.ar    1  UNL1        0.1386
     24 C         140.6506  136.7382  156.1260 C.ar    1  UNL1        0.0370
     25 C         139.8607  137.6763  156.9897 C.ar    1  UNL1        0.0076
     26 O         142.8023  136.1966  154.7744 O.3     1  UNL1       -0.4740
     27 C         143.8693  135.3357  155.3828 C.3     1  UNL1        0.2226
     28 C         143.6813  134.7680  156.7585 C.3     1  UNL1        0.1202
     29 N         143.7597  133.2859  156.9754 N.3     1  UNL1       -0.2653
     30 C         142.7315  132.3826  156.3615 C.3     1  UNL1        0.1047
     31 C         142.8099  130.9004  156.5784 C.3     1  UNL1        0.1595
     32 O         143.9165  130.3216  157.4093 O.3     1  UNL1       -0.3508
     33 C         144.9447  131.2248  158.0233 C.3     1  UNL1        0.1595
     34 C         144.8663  132.7070  157.8063 C.3     1  UNL1        0.1047
     35 C         138.1285  142.3383  162.4108 C.2     1  UNL1        0.3438
     36 O         136.9052  141.9135  163.1678 O.2     1  UNL1       -0.2448
     37 O         138.3669  143.7916  162.1255 O.3     1  UNL1       -0.4491
     38 C         140.3715  145.3907  162.5430 C.3     1  UNL1        0.0473
     39 C         139.1993  144.6135  163.0644 C.3     1  UNL1        0.1694
     40 C         138.8595  144.6582  164.5247 C.3     1  UNL1        0.0473
@<TRIPOS>BOND
     1    38    39    1
     2    39    40    1
     3    39    37    1
     4    37    35    1
     5    35    36    2
     6    35     1    1
     7     1     2    2
     8     2     3    1
     9     3     4   am
    10     4     5    2
    11     4    20    1
    12    20    21   ar
    13    21    22   ar
    14    22    23   ar
    15    23    26    1
    16    26    27    1
    17    27    28    1
    18    28    29    1
    19    29    30    1
    20    30    31    1
    21    31    32    1
    22    32    33    1
    23    33    34    1
    24    23    24   ar
    25    24    25   ar
    26     3     6    1
    27     6     7    1
    28     7     8    1
    29     7     9    1
    30     7    10    1
    31    10    11    2
    32    11    12    1
    33    12    13    2
    34    13    14    1
    35    14    15    1
    36    15    16    1
    37    15    17    2
    38    17    18    1
    39    18    19    2
    40    11     1    1
    41    19    13    1
    42    25    20   ar
    43    19    10    1
    44    34    29    1
@<TRIPOS>MOLECULE
*****
 40 44 0 0 0
SMALL
GASTEIGER

@<TRIPOS>ATOM
      1 C         141.8661  142.1710  162.2850 C.2     1  UNL1        0.1077
      2 C         142.1017  141.7923  160.8529 C.2     1  UNL1        0.0757
      3 N         141.6376  140.5682  160.1207 N.am    1  UNL1       -0.2534
      4 C         142.0412  140.4801  158.6787 C.2     1  UNL1        0.2528
      5 O         142.8575  141.5761  158.0601 O.2     1  UNL1       -0.2696
      6 C         140.8232  139.4204  160.6398 C.3     1  UNL1        0.1025
      7 C         140.2718  139.2133  162.0193 C.3     1  UNL1        0.0390
      8 C         139.5139  138.4614  163.0729 C.3     1  UNL1        0.0061
      9 C         139.8077  137.9891  161.2871 C.3     1  UNL1        0.0061
     10 C         140.3986  140.1028  163.2205 C.2     1  UNL1       -0.0022
     11 C         141.1081  141.4191  163.3387 C.2     1  UNL1        0.0845
     12 N         140.9435  141.9095  164.7467 N.2     1  UNL1       -0.2493
     13 C         140.1322  140.8964  165.4986 C.2     1  UNL1        0.0654
     14 C         139.6567  140.8463  166.9203 C.3     1  UNL1        0.1022
     15 C         138.8443  139.6797  167.3987 C.2     1  UNL1        0.1236
     16 F         138.3687  139.6296  168.8205 F       1  UNL1       -0.2085
     17 C         138.5076  138.5630  166.4555 C.2     1  UNL1        0.0256
     18 C         138.9832  138.6131  165.0338 C.2     1  UNL1        0.0029
     19 C         139.7955  139.7797  164.5553 C.2     1  UNL1        0.0115
     20 C         141.6286  139.2962  157.8553 C.ar    1  UNL1        0.0541
     21 C         142.5353  138.1063  157.7455 C.ar    1  UNL1        0.0076
     22 C         142.1227  136.9224  156.9220 C.ar    1  UNL1        0.0370
     23 C         140.8034  136.9283  156.2085 C.ar    1  UNL1        0.1386
     24 C         139.8966  138.1182  156.3183 C.ar    1  UNL1        0.0370
     25 C         140.3093  139.3021  157.1417 C.ar    1  UNL1        0.0076
     26 O         140.3907  135.7444  155.3851 O.3     1  UNL1       -0.4740
     27 C         141.4289  134.7975  154.8600 C.3     1  UNL1        0.2226
     28 C         141.5221  133.4057  155.4115 C.3     1  UNL1        0.1202
     29 N         142.8040  132.9266  156.0255 N.3     1  UNL1       -0.2653
     30 C         143.5680  131.8046  155.3871 C.3     1  UNL1        0.1047
     31 C         144.8500  131.3255  156.0011 C.3     1  UNL1        0.1595
     32 O         145.3679  131.9683  157.2536 O.3     1  UNL1       -0.3508
     33 C         144.6039  133.0903  157.8920 C.3     1  UNL1        0.1595
     34 C         143.3219  133.5694  157.2779 C.3     1  UNL1        0.1047
     35 C         142.4680  143.4738  162.7212 C.2     1  UNL1        0.3438
     36 O         141.5878  144.6659  162.9546 O.2     1  UNL1       -0.2448
     37 O         143.9501  143.5847  162.9241 O.3     1  UNL1       -0.4491
     38 C         145.6250  141.7610  163.7108 C.3     1  UNL1        0.0473
     39 C         144.6145  142.8221  164.0318 C.3     1  UNL1        0.1694
     40 C         144.2685  143.1206  165.4605 C.3     1  UNL1        0.0473
@<TRIPOS>BOND
     1    38    39    1
     2    39    40    1
     3    39    37    1
     4    37    35    1
     5    35    36    2
     6    35     1    1
     7     1     2    2
     8     2     3    1
     9     3     4   am
    10     4     5    2
    11     4    20    1
    12    20    21   ar
    13    21    22   ar
    14    22    23   ar
    15    23    26    1
    16    26    27    1
    17    27    28    1
    18    28    29    1
    19    29    30    1
    20    30    31    1
    21    31    32    1
    22    32    33    1
    23    33    34    1
    24    23    24   ar
    25    24    25   ar
    26     3     6    1
    27     6     7    1
    28     7     8    1
    29     7     9    1
    30     7    10    1
    31    10    11    2
    32    11    12    1
    33    12    13    2
    34    13    14    1
    35    14    15    1
    36    15    16    1
    37    15    17    2
    38    17    18    1
    39    18    19    2
    40    11     1    1
    41    19    13    1
    42    25    20   ar
    43    19    10    1
    44    34    29    1
@<TRIPOS>MOLECULE
*****
 40 44 0 0 0
SMALL
GASTEIGER

@<TRIPOS>ATOM
      1 C         141.3698  143.2369  162.9592 C.2     1  UNL1        0.1077
      2 C         141.2349  142.8470  161.5170 C.2     1  UNL1        0.0757
      3 N         141.4044  141.4928  160.8945 N.am    1  UNL1       -0.2534
      4 C         141.2008  141.4288  159.4098 C.2     1  UNL1        0.2528
      5 O         140.8512  142.6719  158.6465 O.2     1  UNL1       -0.2696
      6 C         141.7505  140.1940  161.5605 C.3     1  UNL1        0.1025
      7 C         142.0126  139.9287  163.0134 C.3     1  UNL1        0.0390
      8 C         142.3502  139.0607  164.1892 C.3     1  UNL1        0.0061
      9 C         142.1821  138.5745  162.3910 C.3     1  UNL1        0.0061
     10 C         141.9934  140.8966  164.1592 C.2     1  UNL1       -0.0022
     11 C         141.7073  142.3689  164.1350 C.2     1  UNL1        0.0845
     12 N         141.8126  142.8846  165.5397 N.2     1  UNL1       -0.2493
     13 C         142.1637  141.7311  166.4319 C.2     1  UNL1        0.0654
     14 C         142.3961  141.6408  167.9110 C.3     1  UNL1        0.1022
     15 C         142.7403  140.3218  168.5369 C.2     1  UNL1        0.1236
     16 F         142.9727  140.2314  170.0161 F       1  UNL1       -0.2085
     17 C         142.8520  139.0931  167.6838 C.2     1  UNL1        0.0256
     18 C         142.6196  139.1835  166.2047 C.2     1  UNL1        0.0029
     19 C         142.2755  140.5024  165.5787 C.2     1  UNL1        0.0115
     20 C         141.3467  140.1218  158.6883 C.ar    1  UNL1        0.0541
     21 C         142.7002  139.6647  158.2310 C.ar    1  UNL1        0.0076
     22 C         142.8461  138.3577  157.5095 C.ar    1  UNL1        0.0370
     23 C         141.6387  137.5079  157.2454 C.ar    1  UNL1        0.1386
     24 C         140.2852  137.9651  157.7028 C.ar    1  UNL1        0.0370
     25 C         140.1393  139.2721  158.4243 C.ar    1  UNL1        0.0076
     26 O         141.7846  136.2009  156.5240 O.3     1  UNL1       -0.4740
     27 C         143.1112  135.5012  156.5007 C.3     1  UNL1        0.2226
     28 C         143.3136  134.2504  157.3036 C.3     1  UNL1        0.1202
     29 N         143.4144  132.9233  156.6119 N.3     1  UNL1       -0.2653
     30 C         144.7317  132.2085  156.5489 C.3     1  UNL1        0.1047
     31 C         144.8325  130.8813  155.8572 C.3     1  UNL1        0.1595
     32 O         143.6160  130.2690  155.2285 O.3     1  UNL1       -0.3508
     33 C         142.2988  130.9837  155.2914 C.3     1  UNL1        0.1595
     34 C         142.1980  132.3109  155.9831 C.3     1  UNL1        0.1047
     35 C         141.1362  144.6864  163.2660 C.2     1  UNL1        0.3438
     36 O         142.2924  145.5738  163.6205 O.2     1  UNL1       -0.2448
     37 O         139.7463  145.2486  163.2184 O.3     1  UNL1       -0.4491
     38 C         137.6529  143.7164  163.3608 C.3     1  UNL1        0.0473
     39 C         138.6529  144.6148  164.0264 C.3     1  UNL1        0.1694
     40 C         138.5594  144.8794  165.4999 C.3     1  UNL1        0.0473
@<TRIPOS>BOND
     1    38    39    1
     2    39    40    1
     3    39    37    1
     4    37    35    1
     5    35    36    2
     6    35     1    1
     7     1     2    2
     8     2     3    1
     9     3     4   am
    10     4     5    2
    11     4    20    1
    12    20    21   ar
    13    21    22   ar
    14    22    23   ar
    15    23    26    1
    16    26    27    1
    17    27    28    1
    18    28    29    1
    19    29    30    1
    20    30    31    1
    21    31    32    1
    22    32    33    1
    23    33    34    1
    24    23    24   ar
    25    24    25   ar
    26     3     6    1
    27     6     7    1
    28     7     8    1
    29     7     9    1
    30     7    10    1
    31    10    11    2
    32    11    12    1
    33    12    13    2
    34    13    14    1
    35    14    15    1
    36    15    16    1
    37    15    17    2
    38    17    18    1
    39    18    19    2
    40    11     1    1
    41    19    13    1
    42    25    20   ar
    43    19    10    1
    44    34    29    1
@<TRIPOS>MOLECULE
*****
 40 44 0 0 0
SMALL
GASTEIGER

@<TRIPOS>ATOM
      1 C         141.9112  143.6462  162.6643 C.2     1  UNL1        0.1077
      2 C         142.0980  143.6413  161.1760 C.2     1  UNL1        0.0757
      3 N         142.5922  142.5292  160.2990 N.am    1  UNL1       -0.2534
      4 C         142.6669  142.8402  158.8335 C.2     1  UNL1        0.2528
      5 O         142.2604  144.1943  158.3325 O.2     1  UNL1       -0.2696
      6 C         143.0216  141.1473  160.6938 C.3     1  UNL1        0.1025
      7 C         143.0628  140.5361  162.0630 C.3     1  UNL1        0.0390
      8 C         143.3240  139.4300  163.0420 C.3     1  UNL1        0.0061
      9 C         143.5570  139.4239  161.1862 C.3     1  UNL1        0.0061
     10 C         142.6848  141.1560  163.3757 C.2     1  UNL1       -0.0022
     11 C         142.1723  142.5401  163.6432 C.2     1  UNL1        0.0845
     12 N         141.9429  142.6720  165.1197 N.2     1  UNL1       -0.2493
     13 C         142.3136  141.3695  165.7647 C.2     1  UNL1        0.0654
     14 C         142.2929  140.9156  167.1942 C.3     1  UNL1        0.1022
     15 C         142.7307  139.5247  167.5458 C.2     1  UNL1        0.1236
     16 F         142.7100  139.0707  168.9754 F       1  UNL1       -0.2085
     17 C         143.1893  138.5877  166.4679 C.2     1  UNL1        0.0256
     18 C         143.2100  139.0416  165.0384 C.2     1  UNL1        0.0029
     19 C         142.7722  140.4325  164.6868 C.2     1  UNL1        0.0115
     20 C         143.1481  141.7970  157.8690 C.ar    1  UNL1        0.0541
     21 C         144.6180  141.6191  157.6284 C.ar    1  UNL1        0.0076
     22 C         145.0992  140.5759  156.6639 C.ar    1  UNL1        0.0370
     23 C         144.1105  139.7106  155.9402 C.ar    1  UNL1        0.1386
     24 C         142.6407  139.8885  156.1808 C.ar    1  UNL1        0.0370
     25 C         142.1595  140.9317  157.1453 C.ar    1  UNL1        0.0076
     26 O         144.5918  138.6674  154.9757 O.3     1  UNL1       -0.4740
     27 C         144.4328  137.2124  155.3037 C.3     1  UNL1        0.2226
     28 C         143.1468  136.5083  154.9867 C.3     1  UNL1        0.1202
     29 N         142.8716  135.1524  155.5661 N.3     1  UNL1       -0.2653
     30 C         141.8243  134.2723  154.9507 C.3     1  UNL1        0.1047
     31 C         141.5491  132.9163  155.5301 C.3     1  UNL1        0.1595
     32 O         142.3212  132.4405  156.7249 O.3     1  UNL1       -0.3508
     33 C         143.3685  133.3206  157.3403 C.3     1  UNL1        0.1595
     34 C         143.6437  134.6765  156.7609 C.3     1  UNL1        0.1047
     35 C         141.3949  144.9263  163.2513 C.2     1  UNL1        0.3438
     36 O         142.3068  145.8036  164.0567 O.2     1  UNL1       -0.2448
     37 O         139.9666  145.3292  163.0328 O.3     1  UNL1       -0.4491
     38 C         137.8040  143.8899  163.0736 C.3     1  UNL1        0.0473
     39 C         138.8706  144.6529  163.8018 C.3     1  UNL1        0.1694
     40 C         138.8410  144.7396  165.2990 C.3     1  UNL1        0.0473
@<TRIPOS>BOND
     1    38    39    1
     2    39    40    1
     3    39    37    1
     4    37    35    1
     5    35    36    2
     6    35     1    1
     7     1     2    2
     8     2     3    1
     9     3     4   am
    10     4     5    2
    11     4    20    1
    12    20    21   ar
    13    21    22   ar
    14    22    23   ar
    15    23    26    1
    16    26    27    1
    17    27    28    1
    18    28    29    1
    19    29    30    1
    20    30    31    1
    21    31    32    1
    22    32    33    1
    23    33    34    1
    24    23    24   ar
    25    24    25   ar
    26     3     6    1
    27     6     7    1
    28     7     8    1
    29     7     9    1
    30     7    10    1
    31    10    11    2
    32    11    12    1
    33    12    13    2
    34    13    14    1
    35    14    15    1
    36    15    16    1
    37    15    17    2
    38    17    18    1
    39    18    19    2
    40    11     1    1
    41    19    13    1
    42    25    20   ar
    43    19    10    1
    44    34    29    1
@<TRIPOS>MOLECULE
*****
 40 44 0 0 0
SMALL
GASTEIGER

@<TRIPOS>ATOM
      1 C         143.3606  140.3881  162.7533 C.2     1  UNL1        0.1077
      2 C         143.4293  140.0796  161.2869 C.2     1  UNL1        0.0757
      3 N         142.3888  139.4402  160.4160 N.am    1  UNL1       -0.2534
      4 C         142.7640  139.2667  158.9741 C.2     1  UNL1        0.2528
      5 O         144.1083  139.7221  158.4890 O.2     1  UNL1       -0.2696
      6 C         141.0226  138.9515  160.7963 C.3     1  UNL1        0.1025
      7 C         140.3595  138.9813  162.1414 C.3     1  UNL1        0.0390
      8 C         139.2333  138.7266  163.0990 C.3     1  UNL1        0.0061
      9 C         139.3189  138.3420  161.2705 C.3     1  UNL1        0.0061
     10 C         140.8988  139.5073  163.4386 C.2     1  UNL1       -0.0022
     11 C         142.2344  140.1334  163.7108 C.2     1  UNL1        0.0845
     12 N         142.2902  140.4919  165.1663 N.2     1  UNL1       -0.2493
     13 C         140.9891  140.0874  165.7935 C.2     1  UNL1        0.0654
     14 C         140.4763  140.1945  167.1990 C.3     1  UNL1        0.1022
     15 C         139.1035  139.6932  167.5367 C.2     1  UNL1        0.1236
     16 F         138.5906  139.8003  168.9423 F       1  UNL1       -0.2085
     17 C         138.2435  139.0847  166.4689 C.2     1  UNL1        0.0256
     18 C         138.7563  138.9775  165.0634 C.2     1  UNL1        0.0029
     19 C         140.1291  139.4789  164.7257 C.2     1  UNL1        0.0115
     20 C         141.7950  138.6378  158.0173 C.ar    1  UNL1        0.0541
     21 C         140.4986  139.3240  157.7034 C.ar    1  UNL1        0.0076
     22 C         139.5296  138.6950  156.7466 C.ar    1  UNL1        0.0370
     23 C         139.8569  137.3799  156.1039 C.ar    1  UNL1        0.1386
     24 C         141.1533  136.6937  156.4178 C.ar    1  UNL1        0.0370
     25 C         142.1223  137.3227  157.3746 C.ar    1  UNL1        0.0076
     26 O         138.8879  136.7510  155.1471 O.3     1  UNL1       -0.4740
     27 C         138.2570  137.5781  154.0665 C.3     1  UNL1        0.2226
     28 C         136.7929  137.8992  154.1259 C.3     1  UNL1        0.1202
     29 N         136.3428  139.2835  154.4880 N.3     1  UNL1       -0.2653
     30 C         137.2900  140.4390  154.3550 C.3     1  UNL1        0.1047
     31 C         136.8399  141.8233  154.7171 C.3     1  UNL1        0.1595
     32 O         135.4425  142.0520  155.2122 O.3     1  UNL1       -0.3508
     33 C         134.4953  140.8966  155.3453 C.3     1  UNL1        0.1595
     34 C         134.9455  139.5123  154.9832 C.3     1  UNL1        0.1047
     35 C         144.5792  141.0370  163.3396 C.2     1  UNL1        0.3438
     36 O         145.5246  140.2337  164.1827 O.2     1  UNL1       -0.2448
     37 O         144.8525  142.4895  163.0828 O.3     1  UNL1       -0.4491
     38 C         144.5123  143.4326  165.4796 C.3     1  UNL1        0.0473
     39 C         144.2865  143.5327  164.0001 C.3     1  UNL1        0.1694
     40 C         143.4948  144.6760  163.4379 C.3     1  UNL1        0.0473
@<TRIPOS>BOND
     1    38    39    1
     2    39    40    1
     3    39    37    1
     4    37    35    1
     5    35    36    2
     6    35     1    1
     7     1     2    2
     8     2     3    1
     9     3     4   am
    10     4     5    2
    11     4    20    1
    12    20    21   ar
    13    21    22   ar
    14    22    23   ar
    15    23    26    1
    16    26    27    1
    17    27    28    1
    18    28    29    1
    19    29    30    1
    20    30    31    1
    21    31    32    1
    22    32    33    1
    23    33    34    1
    24    23    24   ar
    25    24    25   ar
    26     3     6    1
    27     6     7    1
    28     7     8    1
    29     7     9    1
    30     7    10    1
    31    10    11    2
    32    11    12    1
    33    12    13    2
    34    13    14    1
    35    14    15    1
    36    15    16    1
    37    15    17    2
    38    17    18    1
    39    18    19    2
    40    11     1    1
    41    19    13    1
    42    25    20   ar
    43    19    10    1
    44    34    29    1
@<TRIPOS>MOLECULE
*****
 40 44 0 0 0
SMALL
GASTEIGER

@<TRIPOS>ATOM
      1 C         142.1589  143.6668  162.7617 C.2     1  UNL1        0.1077
      2 C         142.4127  143.7976  161.2892 C.2     1  UNL1        0.0757
      3 N         142.9962  142.7866  160.3472 N.am    1  UNL1       -0.2534
      4 C         143.1226  143.2251  158.9183 C.2     1  UNL1        0.2528
      5 O         142.6776  144.5991  158.5134 O.2     1  UNL1       -0.2696
      6 C         143.4701  141.3949  160.6453 C.3     1  UNL1        0.1025
      7 C         143.4774  140.6707  161.9588 C.3     1  UNL1        0.0390
      8 C         143.7445  139.4964  162.8532 C.3     1  UNL1        0.0061
      9 C         144.0610  139.6595  161.0169 C.3     1  UNL1        0.0061
     10 C         143.0127  141.1592  163.2988 C.2     1  UNL1       -0.0022
     11 C         142.4259  142.4926  163.6561 C.2     1  UNL1        0.0845
     12 N         142.1244  142.4875  165.1255 N.2     1  UNL1       -0.2493
     13 C         142.5248  141.1510  165.6763 C.2     1  UNL1        0.0654
     14 C         142.4604  140.5755  167.0600 C.3     1  UNL1        0.1022
     15 C         142.9451  139.1791  167.3147 C.2     1  UNL1        0.1236
     16 F         142.8807  138.6035  168.6984 F       1  UNL1       -0.2085
     17 C         143.4941  138.3581  166.1857 C.2     1  UNL1        0.0256
     18 C         143.5585  138.9336  164.8021 C.2     1  UNL1        0.0029
     19 C         143.0738  140.3300  164.5473 C.2     1  UNL1        0.0115
     20 C         143.6940  142.2895  157.8944 C.ar    1  UNL1        0.0541
     21 C         142.8030  141.3027  157.2001 C.ar    1  UNL1        0.0076
     22 C         143.3744  140.3672  156.1762 C.ar    1  UNL1        0.0370
     23 C         144.8368  140.4186  155.8467 C.ar    1  UNL1        0.1386
     24 C         145.7278  141.4054  156.5411 C.ar    1  UNL1        0.0370
     25 C         145.1564  142.3409  157.5650 C.ar    1  UNL1        0.0076
     26 O         145.4082  139.4831  154.8228 O.3     1  UNL1       -0.4740
     27 C         145.3934  139.8603  153.3711 C.3     1  UNL1        0.2226
     28 C         146.5006  140.6973  152.8023 C.3     1  UNL1        0.1202
     29 N         146.5115  142.1802  153.0278 N.3     1  UNL1       -0.2653
     30 C         147.8159  142.9149  153.1215 C.3     1  UNL1        0.1047
     31 C         147.8268  144.3979  153.3470 C.3     1  UNL1        0.1595
     32 O         146.5334  145.1460  153.4787 O.3     1  UNL1       -0.3508
     33 C         145.2290  144.4112  153.3849 C.3     1  UNL1        0.1595
     34 C         145.2181  142.9283  153.1595 C.3     1  UNL1        0.1047
     35 C         141.5586  144.8692  163.4281 C.2     1  UNL1        0.3438
     36 O         142.4353  145.8249  164.1817 O.2     1  UNL1       -0.2448
     37 O         140.0816  145.1159  163.3408 O.3     1  UNL1       -0.4491
     38 C         138.6863  144.9363  165.5250 C.3     1  UNL1        0.0473
     39 C         139.1399  144.3492  164.2213 C.3     1  UNL1        0.1694
     40 C         138.6516  142.9955  163.7982 C.3     1  UNL1        0.0473
@<TRIPOS>BOND
     1    38    39    1
     2    39    40    1
     3    39    37    1
     4    37    35    1
     5    35    36    2
     6    35     1    1
     7     1     2    2
     8     2     3    1
     9     3     4   am
    10     4     5    2
    11     4    20    1
    12    20    21   ar
    13    21    22   ar
    14    22    23   ar
    15    23    26    1
    16    26    27    1
    17    27    28    1
    18    28    29    1
    19    29    30    1
    20    30    31    1
    21    31    32    1
    22    32    33    1
    23    33    34    1
    24    23    24   ar
    25    24    25   ar
    26     3     6    1
    27     6     7    1
    28     7     8    1
    29     7     9    1
    30     7    10    1
    31    10    11    2
    32    11    12    1
    33    12    13    2
    34    13    14    1
    35    14    15    1
    36    15    16    1
    37    15    17    2
    38    17    18    1
    39    18    19    2
    40    11     1    1
    41    19    13    1
    42    25    20   ar
    43    19    10    1
    44    34    29    1
@<TRIPOS>MOLECULE
*****
 40 44 0 0 0
SMALL
GASTEIGER

@<TRIPOS>ATOM
      1 C         141.2285  142.9117  162.6699 C.2     1  UNL1        0.1077
      2 C         141.8184  143.0687  161.2997 C.2     1  UNL1        0.0757
      3 N         141.9078  142.0546  160.1981 N.am    1  UNL1       -0.2534
      4 C         142.5620  142.5241  158.9326 C.2     1  UNL1        0.2528
      5 O         143.0761  143.9296  158.8310 O.2     1  UNL1       -0.2696
      6 C         141.4294  140.6329  160.1947 C.3     1  UNL1        0.1025
      7 C         140.7434  139.8743  161.2919 C.3     1  UNL1        0.0390
      8 C         140.0973  138.6643  161.8990 C.3     1  UNL1        0.0061
      9 C         140.8328  138.8600  160.1904 C.3     1  UNL1        0.0061
     10 C         140.3665  140.3500  162.6637 C.2     1  UNL1       -0.0022
     11 C         140.5824  141.7018  163.2769 C.2     1  UNL1        0.0845
     12 N         140.0268  141.6729  164.6699 N.2     1  UNL1       -0.2493
     13 C         139.4676  140.3032  164.9177 C.2     1  UNL1        0.0654
     14 C         138.7943  139.6950  166.1121 C.3     1  UNL1        0.1022
     15 C         138.3310  138.2691  166.0666 C.2     1  UNL1        0.1236
     16 F         137.6577  137.6607  167.2610 F       1  UNL1       -0.2085
     17 C         138.5409  137.4515  164.8266 C.2     1  UNL1        0.0256
     18 C         139.2142  138.0597  163.6322 C.2     1  UNL1        0.0029
     19 C         139.6775  139.4856  163.6777 C.2     1  UNL1        0.0115
     20 C         142.7022  141.5882  157.7688 C.ar    1  UNL1        0.0541
     21 C         143.9834  140.8362  157.5612 C.ar    1  UNL1        0.0076
     22 C         144.1235  139.9003  156.3974 C.ar    1  UNL1        0.0370
     23 C         142.9826  139.7164  155.4413 C.ar    1  UNL1        0.1386
     24 C         141.7014  140.4684  155.6489 C.ar    1  UNL1        0.0370
     25 C         141.5612  141.4043  156.8127 C.ar    1  UNL1        0.0076
     26 O         143.1227  138.7805  154.2774 O.3     1  UNL1       -0.4740
     27 C         143.1866  137.2999  154.5091 C.3     1  UNL1        0.2226
     28 C         142.0062  136.5803  155.0914 C.3     1  UNL1        0.1202
     29 N         142.1730  135.2011  155.6571 N.3     1  UNL1       -0.2653
     30 C         141.4238  134.0486  155.0567 C.3     1  UNL1        0.1047
     31 C         141.5906  132.6694  155.6223 C.3     1  UNL1        0.1595
     32 O         142.5065  132.4428  156.7884 O.3     1  UNL1       -0.3508
     33 C         143.2557  133.5952  157.3888 C.3     1  UNL1        0.1595
     34 C         143.0889  134.9744  156.8231 C.3     1  UNL1        0.1047
     35 C         141.2934  144.1251  163.5494 C.2     1  UNL1        0.3438
     36 O         142.4679  144.3297  164.4597 O.2     1  UNL1       -0.2448
     37 O         140.1838  145.1340  163.5185 O.3     1  UNL1       -0.4491
     38 C         138.5924  144.9572  165.5645 C.3     1  UNL1        0.0473
     39 C         138.8421  144.7909  164.0948 C.3     1  UNL1        0.1694
     40 C         137.7500  144.2816  163.2015 C.3     1  UNL1        0.0473
@<TRIPOS>BOND
     1    38    39    1
     2    39    40    1
     3    39    37    1
     4    37    35    1
     5    35    36    2
     6    35     1    1
     7     1     2    2
     8     2     3    1
     9     3     4   am
    10     4     5    2
    11     4    20    1
    12    20    21   ar
    13    21    22   ar
    14    22    23   ar
    15    23    26    1
    16    26    27    1
    17    27    28    1
    18    28    29    1
    19    29    30    1
    20    30    31    1
    21    31    32    1
    22    32    33    1
    23    33    34    1
    24    23    24   ar
    25    24    25   ar
    26     3     6    1
    27     6     7    1
    28     7     8    1
    29     7     9    1
    30     7    10    1
    31    10    11    2
    32    11    12    1
    33    12    13    2
    34    13    14    1
    35    14    15    1
    36    15    16    1
    37    15    17    2
    38    17    18    1
    39    18    19    2
    40    11     1    1
    41    19    13    1
    42    25    20   ar
    43    19    10    1
    44    34    29    1
@<TRIPOS>MOLECULE
*****
 40 44 0 0 0
SMALL
GASTEIGER

@<TRIPOS>ATOM
      1 C         142.4967  140.3387  161.6463 C.2     1  UNL1        0.1077
      2 C         142.4898  139.5896  160.3468 C.2     1  UNL1        0.0757
      3 N         141.4297  139.5673  159.2857 N.am    1  UNL1       -0.2534
      4 C         141.7234  138.7104  158.0901 C.2     1  UNL1        0.2528
      5 O         143.0117  137.9460  158.0136 O.2     1  UNL1       -0.2696
      6 C         140.1148  140.2887  159.2622 C.3     1  UNL1        0.1025
      7 C         139.5351  141.2104  160.2938 C.3     1  UNL1        0.0390
      8 C         138.4836  142.1223  160.8533 C.3     1  UNL1        0.0061
      9 C         138.4750  141.1882  159.2328 C.3     1  UNL1        0.0061
     10 C         140.1272  141.6385  161.6039 C.2     1  UNL1       -0.0022
     11 C         141.4452  141.2505  162.2058 C.2     1  UNL1        0.0845
     12 N         141.5731  141.9456  163.5288 N.2     1  UNL1       -0.2493
     13 C         140.3342  142.7632  163.7446 C.2     1  UNL1        0.0654
     14 C         139.9043  143.6560  164.8707 C.3     1  UNL1        0.1022
     15 C         138.5808  144.3589  164.8072 C.2     1  UNL1        0.1236
     16 F         138.1508  145.2517  165.9333 F       1  UNL1       -0.2085
     17 C         137.6871  144.1691  163.6175 C.2     1  UNL1        0.0256
     18 C         138.1170  143.2763  162.4914 C.2     1  UNL1        0.0029
     19 C         139.4405  142.5734  162.5550 C.2     1  UNL1        0.0115
     20 C         140.7288  138.6180  156.9711 C.ar    1  UNL1        0.0541
     21 C         139.9244  137.3658  156.7842 C.ar    1  UNL1        0.0076
     22 C         138.9298  137.2734  155.6651 C.ar    1  UNL1        0.0370
     23 C         138.7397  138.4330  154.7330 C.ar    1  UNL1        0.1386
     24 C         139.5442  139.6852  154.9199 C.ar    1  UNL1        0.0370
     25 C         140.5388  139.7776  156.0390 C.ar    1  UNL1        0.0076
     26 O         137.7451  138.3406  153.6140 O.3     1  UNL1       -0.4740
     27 C         136.2908  138.5930  153.8804 C.3     1  UNL1        0.2226
     28 C         135.8405  139.9369  154.3716 C.3     1  UNL1        0.1202
     29 N         134.5068  140.0819  155.0427 N.3     1  UNL1       -0.2653
     30 C         134.0378  139.0381  156.0125 C.3     1  UNL1        0.1047
     31 C         132.7041  139.1831  156.6836 C.3     1  UNL1        0.1595
     32 O         131.8395  140.3719  156.3848 O.3     1  UNL1       -0.3508
     33 C         132.3086  141.4157  155.4150 C.3     1  UNL1        0.1595
     34 C         133.6422  141.2707  154.7439 C.3     1  UNL1        0.1047
     35 C         143.7163  140.1511  162.4992 C.2     1  UNL1        0.3438
     36 O         143.7678  139.0342  163.4990 O.2     1  UNL1       -0.2448
     37 O         144.8844  141.0806  162.3521 O.3     1  UNL1       -0.4491
     38 C         145.1785  142.5409  164.4808 C.3     1  UNL1        0.0473
     39 C         144.8625  142.4240  163.0191 C.3     1  UNL1        0.1694
     40 C         144.5247  143.6505  162.2244 C.3     1  UNL1        0.0473
@<TRIPOS>BOND
     1    38    39    1
     2    39    40    1
     3    39    37    1
     4    37    35    1
     5    35    36    2
     6    35     1    1
     7     1     2    2
     8     2     3    1
     9     3     4   am
    10     4     5    2
    11     4    20    1
    12    20    21   ar
    13    21    22   ar
    14    22    23   ar
    15    23    26    1
    16    26    27    1
    17    27    28    1
    18    28    29    1
    19    29    30    1
    20    30    31    1
    21    31    32    1
    22    32    33    1
    23    33    34    1
    24    23    24   ar
    25    24    25   ar
    26     3     6    1
    27     6     7    1
    28     7     8    1
    29     7     9    1
    30     7    10    1
    31    10    11    2
    32    11    12    1
    33    12    13    2
    34    13    14    1
    35    14    15    1
    36    15    16    1
    37    15    17    2
    38    17    18    1
    39    18    19    2
    40    11     1    1
    41    19    13    1
    42    25    20   ar
    43    19    10    1
    44    34    29    1
@<TRIPOS>MOLECULE
*****
 40 44 0 0 0
SMALL
GASTEIGER

@<TRIPOS>ATOM
      1 C         142.6489  140.5545  162.0635 C.2     1  UNL1        0.1077
      2 C         142.6786  139.8130  160.7600 C.2     1  UNL1        0.0757
      3 N         141.6503  139.7998  159.6679 N.am    1  UNL1       -0.2534
      4 C         141.9771  138.9490  158.4765 C.2     1  UNL1        0.2528
      5 O         143.2652  138.1816  158.4336 O.2     1  UNL1       -0.2696
      6 C         140.3385  140.5248  159.6097 C.3     1  UNL1        0.1025
      7 C         139.7309  141.4421  160.6292 C.3     1  UNL1        0.0390
      8 C         138.6657  142.3536  161.1626 C.3     1  UNL1        0.0061
      9 C         138.7026  141.4290  159.5372 C.3     1  UNL1        0.0061
     10 C         140.2851  141.8610  161.9587 C.2     1  UNL1       -0.0022
     11 C         141.5837  141.4660  162.5970 C.2     1  UNL1        0.0845
     12 N         141.6742  142.1530  163.9273 N.2     1  UNL1       -0.2493
     13 C         140.4314  142.9727  164.1112 C.2     1  UNL1        0.0654
     14 C         139.9707  143.8601  165.2293 C.3     1  UNL1        0.1022
     15 C         138.6514  144.5670  165.1307 C.2     1  UNL1        0.1236
     16 F         138.1906  145.4544  166.2489 F       1  UNL1       -0.2085
     17 C         137.7929  144.3865  163.9140 C.2     1  UNL1        0.0256
     18 C         138.2536  143.4991  162.7959 C.2     1  UNL1        0.0029
     19 C         139.5729  142.7922  162.8945 C.2     1  UNL1        0.0115
     20 C         141.0159  138.8658  157.3280 C.ar    1  UNL1        0.0541
     21 C         140.9297  139.9902  156.3390 C.ar    1  UNL1        0.0076
     22 C         139.9685  139.9070  155.1905 C.ar    1  UNL1        0.0370
     23 C         139.0934  138.6992  155.0310 C.ar    1  UNL1        0.1386
     24 C         139.1795  137.5748  156.0200 C.ar    1  UNL1        0.0370
     25 C         140.1408  137.6580  157.1685 C.ar    1  UNL1        0.0076
     26 O         138.1321  138.6160  153.8825 O.3     1  UNL1       -0.4740
     27 C         136.6921  138.2786  154.1327 C.3     1  UNL1        0.2226
     28 C         135.6740  139.3743  154.2467 C.3     1  UNL1        0.1202
     29 N         136.1034  140.7608  154.6252 N.3     1  UNL1       -0.2653
     30 C         136.1482  141.8419  153.5864 C.3     1  UNL1        0.1047
     31 C         136.5777  143.2284  153.9649 C.3     1  UNL1        0.1595
     32 O         136.9623  143.5337  155.3823 O.3     1  UNL1       -0.3508
     33 C         136.9175  142.4525  156.4211 C.3     1  UNL1        0.1595
     34 C         136.4881  141.0661  156.0425 C.3     1  UNL1        0.1047
     35 C         143.8423  140.3587  162.9510 C.2     1  UNL1        0.3438
     36 O         144.9118  141.4086  163.0121 O.2     1  UNL1       -0.2448
     37 O         143.9661  139.1130  163.7773 O.3     1  UNL1       -0.4491
     38 C         143.0043  139.3665  166.1775 C.3     1  UNL1        0.0473
     39 C         142.9179  138.7830  164.7983 C.3     1  UNL1        0.1694
     40 C         141.7832  137.8696  164.4402 C.3     1  UNL1        0.0473
@<TRIPOS>BOND
     1    38    39    1
     2    39    40    1
     3    39    37    1
     4    37    35    1
     5    35    36    2
     6    35     1    1
     7     1     2    2
     8     2     3    1
     9     3     4   am
    10     4     5    2
    11     4    20    1
    12    20    21   ar
    13    21    22   ar
    14    22    23   ar
    15    23    26    1
    16    26    27    1
    17    27    28    1
    18    28    29    1
    19    29    30    1
    20    30    31    1
    21    31    32    1
    22    32    33    1
    23    33    34    1
    24    23    24   ar
    25    24    25   ar
    26     3     6    1
    27     6     7    1
    28     7     8    1
    29     7     9    1
    30     7    10    1
    31    10    11    2
    32    11    12    1
    33    12    13    2
    34    13    14    1
    35    14    15    1
    36    15    16    1
    37    15    17    2
    38    17    18    1
    39    18    19    2
    40    11     1    1
    41    19    13    1
    42    25    20   ar
    43    19    10    1
    44    34    29    1
