@<TRIPOS>MOLECULE
*****
 34 38 0 0 0
SMALL
GASTEIGER

@<TRIPOS>ATOM
      1 C         144.0981  141.2502  163.8336 C.ar    1  UNL1        0.1646
      2 N         142.9361  141.6798  162.9879 N.ar    1  UNL1       -0.2224
      3 C         143.4743  142.4410  161.8129 C.ar    1  UNL1        0.1074
      4 C         144.9690  142.4818  161.9323 C.ar    1  UNL1        0.0588
      5 S         145.3545  141.7459  163.1811 S.2     1  UNL1       -0.0508
      6 C         142.6607  143.0538  160.7117 C.ar    1  UNL1        0.1026
      7 C         142.8662  142.6127  159.2928 C.ar    1  UNL1        0.0224
      8 C         142.0525  143.2256  158.1916 C.ar    1  UNL1        0.0239
      9 C         141.0335  144.2793  158.5093 C.ar    1  UNL1        0.1189
     10 C         140.8280  144.7204  159.9283 C.ar    1  UNL1        0.2416
     11 N         141.6416  144.1076  161.0295 N.ar    1  UNL1       -0.2089
     12 N         140.2199  144.8921  157.4082 N.ar    1  UNL1       -0.2826
     13 C         139.1396  144.2074  156.6244 C.ar    1  UNL1        0.1826
     14 N         138.5958  145.1893  155.6293 N.ar    1  UNL1       -0.2280
     15 C         139.3400  146.4807  155.7981 C.ar    1  UNL1        0.0786
     16 C         139.1191  147.7356  155.0064 C.3     1  UNL1        0.0538
     17 C         140.3438  146.2970  156.8975 C.ar    1  UNL1        0.0963
     18 O         139.8089  145.7742  160.2461 O.3     1  UNL1       -0.4551
     19 C         139.6296  146.2421  161.6599 C.3     1  UNL1        0.2543
     20 N         144.0178  140.4630  165.1080 N.pl3   1  UNL1       -0.2786
     21 H         144.8143  139.9954  165.4488 H       1  UNL1        0.1555
     22 N         142.3593  141.2011  167.0700 N.ar    1  UNL1       -0.2383
     23 N         140.9775  140.8029  167.4967 N.ar    1  UNL1       -0.1729
     24 C         140.4881  139.7441  166.5536 C.ar    1  UNL1        0.0766
     25 C         141.5675  139.4879  165.5440 C.ar    1  UNL1        0.0241
     26 C         142.7239  140.3884  165.8632 C.ar    1  UNL1        0.1275
     27 C         141.0781  138.4291  164.6009 C.3     1  UNL1        0.0267
     28 C         141.8373  137.8672  163.4356 C.3     1  UNL1        0.0048
     29 C         139.6964  138.0310  165.0276 C.3     1  UNL1        0.0101
     30 C         139.3317  138.8437  166.2345 C.3     1  UNL1        0.0372
     31 C         138.0427  138.0797  166.1646 C.3     1  UNL1        0.0060
     32 C         138.6976  139.4967  167.4267 C.3     1  UNL1        0.0060
     33 C         143.1757  142.4050  169.2227 C.3     1  UNL1        0.0285
     34 C         143.2245  142.2312  167.7336 C.3     1  UNL1        0.1289
@<TRIPOS>BOND
     1    33    34    1
     2    34    22    1
     3    22    23   ar
     4    23    24   ar
     5    24    25   ar
     6    25    26   ar
     7    26    20    1
     8    20     1    1
     9     1     2   ar
    10     2     3   ar
    11     3     6    1
    12     6     7   ar
    13     7     8   ar
    14     8     9   ar
    15     9    12    1
    16    12    13   ar
    17    13    14   ar
    18    14    15   ar
    19    15    16    1
    20    15    17   ar
    21     9    10   ar
    22    10    18    1
    23    18    19    1
    24    10    11   ar
    25     3     4   ar
    26     4     5   ar
    27    25    27    1
    28    27    28    1
    29    27    29    1
    30    29    30    1
    31    30    31    1
    32    30    32    1
    33    26    22   ar
    34     5     1   ar
    35    30    24    1
    36    11     6   ar
    37    17    12   ar
    38    20    21    1
@<TRIPOS>MOLECULE
*****
 34 38 0 0 0
SMALL
GASTEIGER

@<TRIPOS>ATOM
      1 C         142.9231  136.6919  157.3889 C.ar    1  UNL1        0.1646
      2 N         143.3252  136.6505  158.8335 N.ar    1  UNL1       -0.2224
      3 C         142.4865  137.6475  159.5769 C.ar    1  UNL1        0.1074
      4 C         141.5662  138.3051  158.5918 C.ar    1  UNL1        0.0588
      5 S         141.8360  137.7146  157.2396 S.2     1  UNL1       -0.0508
      6 C         142.5560  137.9362  161.0472 C.ar    1  UNL1        0.1026
      7 C         143.6917  138.7455  161.5997 C.ar    1  UNL1        0.0224
      8 C         143.7612  139.0342  163.0701 C.ar    1  UNL1        0.0239
      9 C         142.6951  138.5136  163.9878 C.ar    1  UNL1        0.1189
     10 C         141.5594  137.7043  163.4352 C.ar    1  UNL1        0.2416
     11 N         141.4899  137.4156  161.9649 N.ar    1  UNL1       -0.2089
     12 N         142.7646  138.8023  165.4581 N.ar    1  UNL1       -0.2826
     13 C         143.5993  138.0648  166.4629 C.ar    1  UNL1        0.1826
     14 N         143.3622  138.6859  167.8076 N.ar    1  UNL1       -0.2280
     15 C         142.3810  139.8072  167.6338 C.ar    1  UNL1        0.0786
     16 C         141.8606  140.6998  168.7213 C.3     1  UNL1        0.0538
     17 C         142.0117  139.8791  166.1818 C.ar    1  UNL1        0.0963
     18 O         140.4932  137.1837  164.3530 O.3     1  UNL1       -0.4551
     19 C         139.2146  137.9484  164.5273 C.3     1  UNL1        0.2543
     20 N         143.5059  135.8573  156.2873 N.pl3   1  UNL1       -0.2786
     21 H         144.3694  136.1063  155.8851 H       1  UNL1        0.1555
     22 N         141.6591  134.6307  154.7941 N.ar    1  UNL1       -0.2383
     23 N         141.2233  133.2082  154.6029 N.ar    1  UNL1       -0.1729
     24 C         142.0681  132.3415  155.4890 C.ar    1  UNL1        0.0766
     25 C         143.0260  133.2284  156.2278 C.ar    1  UNL1        0.0241
     26 C         142.7732  134.6432  155.7983 C.ar    1  UNL1        0.1275
     27 C         143.8709  132.3617  157.1139 C.3     1  UNL1        0.0267
     28 C         144.9602  132.8345  158.0303 C.3     1  UNL1        0.0048
     29 C         143.4351  130.9392  156.9227 C.3     1  UNL1        0.0101
     30 C         142.3210  130.9267  155.9185 C.3     1  UNL1        0.0372
     31 C         142.3417  129.4445  156.1480 C.3     1  UNL1        0.0060
     32 C         141.2112  130.6044  154.9622 C.3     1  UNL1        0.0060
     33 C         141.8635  136.5233  153.0260 C.3     1  UNL1        0.0285
     34 C         141.0820  135.8301  154.1024 C.3     1  UNL1        0.1289
@<TRIPOS>BOND
     1    33    34    1
     2    34    22    1
     3    22    23   ar
     4    23    24   ar
     5    24    25   ar
     6    25    26   ar
     7    26    20    1
     8    20     1    1
     9     1     2   ar
    10     2     3   ar
    11     3     6    1
    12     6     7   ar
    13     7     8   ar
    14     8     9   ar
    15     9    12    1
    16    12    13   ar
    17    13    14   ar
    18    14    15   ar
    19    15    16    1
    20    15    17   ar
    21     9    10   ar
    22    10    18    1
    23    18    19    1
    24    10    11   ar
    25     3     4   ar
    26     4     5   ar
    27    25    27    1
    28    27    28    1
    29    27    29    1
    30    29    30    1
    31    30    31    1
    32    30    32    1
    33    26    22   ar
    34     5     1   ar
    35    30    24    1
    36    11     6   ar
    37    17    12   ar
    38    20    21    1
@<TRIPOS>MOLECULE
*****
 34 38 0 0 0
SMALL
GASTEIGER

@<TRIPOS>ATOM
      1 C         143.5256  136.5005  156.2287 C.ar    1  UNL1        0.1646
      2 N         142.9683  136.4204  157.6190 N.ar    1  UNL1       -0.2224
      3 C         142.6003  137.8087  158.0517 C.ar    1  UNL1        0.1074
      4 C         142.9302  138.7469  156.9288 C.ar    1  UNL1        0.0588
      5 S         143.5020  137.9385  155.8021 S.2     1  UNL1       -0.0508
      6 C         142.0067  138.1915  159.3749 C.ar    1  UNL1        0.1026
      7 C         142.6623  137.7455  160.6482 C.ar    1  UNL1        0.0224
      8 C         142.0686  138.1284  161.9716 C.ar    1  UNL1        0.0239
      9 C         140.8195  138.9572  162.0216 C.ar    1  UNL1        0.1189
     10 C         140.1639  139.4033  160.7482 C.ar    1  UNL1        0.2416
     11 N         140.7575  139.0204  159.4249 N.ar    1  UNL1       -0.2089
     12 N         140.2259  139.3401  163.3448 N.ar    1  UNL1       -0.2826
     13 C         140.5202  140.5943  164.1134 C.ar    1  UNL1        0.1826
     14 N         139.7099  140.5653  165.3754 N.ar    1  UNL1       -0.2280
     15 C         138.9150  139.2933  165.3868 C.ar    1  UNL1        0.0786
     16 C         137.9674  138.8554  166.4641 C.3     1  UNL1        0.0538
     17 C         139.2339  138.5361  164.1318 C.ar    1  UNL1        0.0963
     18 O         138.9147  140.2322  160.7982 O.3     1  UNL1       -0.4551
     19 C         137.5721  139.5641  160.8292 C.3     1  UNL1        0.2543
     20 N         144.0197  135.3456  155.4089 N.pl3   1  UNL1       -0.2786
     21 H         144.7963  135.4603  154.8148 H       1  UNL1        0.1555
     22 N         143.5083  132.9992  156.5826 N.ar    1  UNL1       -0.2383
     23 N         142.6302  131.8246  156.2673 N.ar    1  UNL1       -0.1729
     24 C         141.9097  132.1156  154.9842 C.ar    1  UNL1        0.0766
     25 C         142.3426  133.4700  154.5065 C.ar    1  UNL1        0.0241
     26 C         143.3305  134.0161  155.4943 C.ar    1  UNL1        0.1275
     27 C         141.6221  133.7610  153.2234 C.3     1  UNL1        0.0267
     28 C         141.7562  135.0077  152.4001 C.3     1  UNL1        0.0048
     29 C         140.7441  132.5865  152.9082 C.3     1  UNL1        0.0101
     30 C         140.9218  131.5696  153.9963 C.3     1  UNL1        0.0372
     31 C         139.9276  130.7762  153.2013 C.3     1  UNL1        0.0060
     32 C         140.8917  130.3868  154.9184 C.3     1  UNL1        0.0060
     33 C         145.4862  132.1210  158.0201 C.3     1  UNL1        0.0285
     34 C         144.4064  133.1332  157.7764 C.3     1  UNL1        0.1289
@<TRIPOS>BOND
     1    33    34    1
     2    34    22    1
     3    22    23   ar
     4    23    24   ar
     5    24    25   ar
     6    25    26   ar
     7    26    20    1
     8    20     1    1
     9     1     2   ar
    10     2     3   ar
    11     3     6    1
    12     6     7   ar
    13     7     8   ar
    14     8     9   ar
    15     9    12    1
    16    12    13   ar
    17    13    14   ar
    18    14    15   ar
    19    15    16    1
    20    15    17   ar
    21     9    10   ar
    22    10    18    1
    23    18    19    1
    24    10    11   ar
    25     3     4   ar
    26     4     5   ar
    27    25    27    1
    28    27    28    1
    29    27    29    1
    30    29    30    1
    31    30    31    1
    32    30    32    1
    33    26    22   ar
    34     5     1   ar
    35    30    24    1
    36    11     6   ar
    37    17    12   ar
    38    20    21    1
@<TRIPOS>MOLECULE
*****
 34 38 0 0 0
SMALL
GASTEIGER

@<TRIPOS>ATOM
      1 C         139.7700  140.8963  163.6606 C.ar    1  UNL1        0.1646
      2 N         140.4043  141.5095  162.4473 N.ar    1  UNL1       -0.2224
      3 C         139.3735  142.3587  161.7646 C.ar    1  UNL1        0.1074
      4 C         138.1022  142.2705  162.5558 C.ar    1  UNL1        0.0588
      5 S         138.3472  141.3667  163.7275 S.2     1  UNL1       -0.0508
      6 C         139.5781  143.1562  160.5107 C.ar    1  UNL1        0.1026
      7 C         140.2838  144.4785  160.5697 C.ar    1  UNL1        0.0224
      8 C         140.4884  145.2760  159.3157 C.ar    1  UNL1        0.0239
      9 C         139.9873  144.7513  158.0030 C.ar    1  UNL1        0.1189
     10 C         139.2816  143.4289  157.9441 C.ar    1  UNL1        0.2416
     11 N         139.0770  142.6314  159.1979 N.ar    1  UNL1       -0.2089
     12 N         140.1919  145.5487  156.7492 N.ar    1  UNL1       -0.2826
     13 C         141.1187  145.1984  155.6228 C.ar    1  UNL1        0.1826
     14 N         141.0052  146.2697  154.5790 N.ar    1  UNL1       -0.2280
     15 C         140.0084  147.2821  155.0603 C.ar    1  UNL1        0.0786
     16 C         139.5881  148.5223  154.3287 C.3     1  UNL1        0.0538
     17 C         139.5058  146.8365  156.4015 C.ar    1  UNL1        0.0963
     18 O         138.7806  142.9040  156.6312 O.3     1  UNL1       -0.4551
     19 C         137.4302  143.3163  156.1248 C.3     1  UNL1        0.2543
     20 N         140.4408  139.9747  164.6356 N.pl3   1  UNL1       -0.2786
     21 H         141.0548  139.2770  164.3109 H       1  UNL1        0.1555
     22 N         139.0549  139.4717  166.8652 N.ar    1  UNL1       -0.2383
     23 N         139.1720  139.8841  168.3026 N.ar    1  UNL1       -0.1729
     24 C         140.3656  140.7836  168.4310 C.ar    1  UNL1        0.0766
     25 C         140.9861  140.9270  167.0730 C.ar    1  UNL1        0.0241
     26 C         140.1761  140.1162  166.1053 C.ar    1  UNL1        0.1275
     27 C         142.1797  141.8264  167.2014 C.3     1  UNL1        0.0267
     28 C         143.0954  142.2406  166.0879 C.3     1  UNL1        0.0048
     29 C         142.2967  142.2388  168.6388 C.3     1  UNL1        0.0101
     30 C         141.1756  141.5944  169.3987 C.3     1  UNL1        0.0372
     31 C         141.7775  142.3013  170.5768 C.3     1  UNL1        0.0060
     32 C         140.1803  141.0977  170.4050 C.3     1  UNL1        0.0060
     33 C         137.2994  137.5805  167.1680 C.3     1  UNL1        0.0285
     34 C         138.0015  138.5726  166.2889 C.3     1  UNL1        0.1289
@<TRIPOS>BOND
     1    33    34    1
     2    34    22    1
     3    22    23   ar
     4    23    24   ar
     5    24    25   ar
     6    25    26   ar
     7    26    20    1
     8    20     1    1
     9     1     2   ar
    10     2     3   ar
    11     3     6    1
    12     6     7   ar
    13     7     8   ar
    14     8     9   ar
    15     9    12    1
    16    12    13   ar
    17    13    14   ar
    18    14    15   ar
    19    15    16    1
    20    15    17   ar
    21     9    10   ar
    22    10    18    1
    23    18    19    1
    24    10    11   ar
    25     3     4   ar
    26     4     5   ar
    27    25    27    1
    28    27    28    1
    29    27    29    1
    30    29    30    1
    31    30    31    1
    32    30    32    1
    33    26    22   ar
    34     5     1   ar
    35    30    24    1
    36    11     6   ar
    37    17    12   ar
    38    20    21    1
@<TRIPOS>MOLECULE
*****
 34 38 0 0 0
SMALL
GASTEIGER

@<TRIPOS>ATOM
      1 C         142.7263  137.7520  157.5735 C.ar    1  UNL1        0.1646
      2 N         143.1987  137.7586  158.9972 N.ar    1  UNL1       -0.2224
      3 C         142.0982  138.3196  159.8481 C.ar    1  UNL1        0.1074
      4 C         140.9456  138.6597  158.9504 C.ar    1  UNL1        0.0588
      5 S         141.3338  138.3089  157.5447 S.2     1  UNL1       -0.0508
      6 C         142.1424  138.5075  161.3357 C.ar    1  UNL1        0.1026
      7 C         141.3809  137.5767  162.2322 C.ar    1  UNL1        0.0224
      8 C         141.4252  137.7647  163.7198 C.ar    1  UNL1        0.0239
      9 C         142.2310  138.8833  164.3108 C.ar    1  UNL1        0.1189
     10 C         142.9925  139.8141  163.4142 C.ar    1  UNL1        0.2416
     11 N         142.9483  139.6262  161.9267 N.ar    1  UNL1       -0.2089
     12 N         142.2752  139.0712  165.7983 N.ar    1  UNL1       -0.2826
     13 C         143.3765  138.6203  166.7115 C.ar    1  UNL1        0.1826
     14 N         143.0079  139.0134  168.1114 N.ar    1  UNL1       -0.2280
     15 C         141.6789  139.7073  168.0632 C.ar    1  UNL1        0.0786
     16 C         140.9335  140.2671  169.2385 C.3     1  UNL1        0.0538
     17 C         141.2261  139.7430  166.6337 C.ar    1  UNL1        0.0963
     18 O         143.7984  140.9327  164.0052 O.3     1  UNL1       -0.4551
     19 C         145.2911  140.8158  164.0948 C.3     1  UNL1        0.2543
     20 N         143.5090  137.2726  156.3871 N.pl3   1  UNL1       -0.2786
     21 H         144.4100  137.6299  156.2148 H       1  UNL1        0.1555
     22 N         142.3691  136.5109  154.0924 N.ar    1  UNL1       -0.2383
     23 N         141.8853  135.2072  153.5300 N.ar    1  UNL1       -0.1729
     24 C         142.1362  134.1394  154.5531 C.ar    1  UNL1        0.0766
     25 C         142.7749  134.7831  155.7479 C.ar    1  UNL1        0.0241
     26 C         142.9189  136.2488  155.4632 C.ar    1  UNL1        0.1275
     27 C         143.0258  133.7152  156.7710 C.3     1  UNL1        0.0267
     28 C         143.6506  133.9159  158.1198 C.3     1  UNL1        0.0048
     29 C         142.5421  132.4116  156.2085 C.3     1  UNL1        0.0101
     30 C         141.9923  132.6737  154.8378 C.3     1  UNL1        0.0372
     31 C         141.7216  131.1984  154.8358 C.3     1  UNL1        0.0060
     32 C         141.3859  132.6274  153.4666 C.3     1  UNL1        0.0060
     33 C         141.0274  138.6152  153.3698 C.3     1  UNL1        0.0285
     34 C         142.3129  137.8429  153.4049 C.3     1  UNL1        0.1289
@<TRIPOS>BOND
     1    33    34    1
     2    34    22    1
     3    22    23   ar
     4    23    24   ar
     5    24    25   ar
     6    25    26   ar
     7    26    20    1
     8    20     1    1
     9     1     2   ar
    10     2     3   ar
    11     3     6    1
    12     6     7   ar
    13     7     8   ar
    14     8     9   ar
    15     9    12    1
    16    12    13   ar
    17    13    14   ar
    18    14    15   ar
    19    15    16    1
    20    15    17   ar
    21     9    10   ar
    22    10    18    1
    23    18    19    1
    24    10    11   ar
    25     3     4   ar
    26     4     5   ar
    27    25    27    1
    28    27    28    1
    29    27    29    1
    30    29    30    1
    31    30    31    1
    32    30    32    1
    33    26    22   ar
    34     5     1   ar
    35    30    24    1
    36    11     6   ar
    37    17    12   ar
    38    20    21    1
@<TRIPOS>MOLECULE
*****
 34 38 0 0 0
SMALL
GASTEIGER

@<TRIPOS>ATOM
      1 C         142.2072  137.9724  157.9282 C.ar    1  UNL1        0.1646
      2 N         142.2623  137.9682  159.4272 N.ar    1  UNL1       -0.2224
      3 C         140.9666  138.5230  159.9403 C.ar    1  UNL1        0.1074
      4 C         140.1106  138.8700  158.7584 C.ar    1  UNL1        0.0588
      5 S         140.8773  138.5298  157.5149 S.2     1  UNL1       -0.0508
      6 C         140.5925  138.6996  161.3821 C.ar    1  UNL1        0.1026
      7 C         140.9128  137.6239  162.3772 C.ar    1  UNL1        0.0224
      8 C         140.5387  137.8006  163.8191 C.ar    1  UNL1        0.0239
      9 C         139.8443  139.0529  164.2658 C.ar    1  UNL1        0.1189
     10 C         139.5240  140.1286  163.2706 C.ar    1  UNL1        0.2416
     11 N         139.8981  139.9519  161.8288 N.ar    1  UNL1       -0.2089
     12 N         139.4702  139.2295  165.7076 N.ar    1  UNL1       -0.2826
     13 C         138.2203  138.7209  166.3628 C.ar    1  UNL1        0.1826
     14 N         138.2579  139.1228  167.8075 N.ar    1  UNL1       -0.2280
     15 C         139.5310  139.8798  168.0451 C.ar    1  UNL1        0.0786
     16 C         139.9766  140.4676  169.3512 C.3     1  UNL1        0.0538
     17 C         140.2802  139.9457  166.7472 C.ar    1  UNL1        0.0963
     18 O         138.8295  141.3809  163.7172 O.3     1  UNL1       -0.4551
     19 C         137.4008  141.6248  163.3309 C.3     1  UNL1        0.2543
     20 N         143.2916  137.5019  157.0047 N.pl3   1  UNL1       -0.2786
     21 H         144.2314  137.7246  157.1953 H       1  UNL1        0.1555
     22 N         142.5354  137.2373  154.4546 N.ar    1  UNL1       -0.2383
     23 N         142.2828  136.0769  153.5382 N.ar    1  UNL1       -0.1729
     24 C         142.5352  134.8146  154.3081 C.ar    1  UNL1        0.0766
     25 C         142.9438  135.1948  155.7005 C.ar    1  UNL1        0.0241
     26 C         142.9439  136.6920  155.7909 C.ar    1  UNL1        0.1275
     27 C         143.1962  133.9324  156.4704 C.3     1  UNL1        0.0267
     28 C         143.6258  133.8457  157.9050 C.3     1  UNL1        0.0048
     29 C         142.9436  132.7722  155.5540 C.3     1  UNL1        0.0101
     30 C         142.5351  133.3173  154.2177 C.3     1  UNL1        0.0372
     31 C         142.4456  131.8708  153.8309 C.3     1  UNL1        0.0060
     32 C         142.1079  133.5601  152.8005 C.3     1  UNL1        0.0060
     33 C         143.6290  139.5393  153.9499 C.3     1  UNL1        0.0285
     34 C         142.4028  138.6881  154.0974 C.3     1  UNL1        0.1289
@<TRIPOS>BOND
     1    33    34    1
     2    34    22    1
     3    22    23   ar
     4    23    24   ar
     5    24    25   ar
     6    25    26   ar
     7    26    20    1
     8    20     1    1
     9     1     2   ar
    10     2     3   ar
    11     3     6    1
    12     6     7   ar
    13     7     8   ar
    14     8     9   ar
    15     9    12    1
    16    12    13   ar
    17    13    14   ar
    18    14    15   ar
    19    15    16    1
    20    15    17   ar
    21     9    10   ar
    22    10    18    1
    23    18    19    1
    24    10    11   ar
    25     3     4   ar
    26     4     5   ar
    27    25    27    1
    28    27    28    1
    29    27    29    1
    30    29    30    1
    31    30    31    1
    32    30    32    1
    33    26    22   ar
    34     5     1   ar
    35    30    24    1
    36    11     6   ar
    37    17    12   ar
    38    20    21    1
@<TRIPOS>MOLECULE
*****
 34 38 0 0 0
SMALL
GASTEIGER

@<TRIPOS>ATOM
      1 C         137.7365  141.0935  161.7921 C.ar    1  UNL1        0.1646
      2 N         138.0965  142.3375  161.0351 N.ar    1  UNL1       -0.2224
      3 C         138.4691  141.9385  159.6380 C.ar    1  UNL1        0.1074
      4 C         138.3393  140.4480  159.5315 C.ar    1  UNL1        0.0588
      5 S         137.8866  139.9257  160.8627 S.2     1  UNL1       -0.0508
      6 C         138.8964  142.8671  158.5402 C.ar    1  UNL1        0.1026
      7 C         139.8887  143.9558  158.8227 C.ar    1  UNL1        0.0224
      8 C         140.3160  144.8844  157.7247 C.ar    1  UNL1        0.0239
      9 C         139.7510  144.7242  156.3446 C.ar    1  UNL1        0.1189
     10 C         138.7586  143.6354  156.0622 C.ar    1  UNL1        0.2416
     11 N         138.3313  142.7068  157.1600 N.ar    1  UNL1       -0.2089
     12 N         140.1783  145.6528  155.2468 N.ar    1  UNL1       -0.2826
     13 C         141.1638  145.3390  154.1603 C.ar    1  UNL1        0.1826
     14 N         141.2897  146.5504  153.2847 N.ar    1  UNL1       -0.2280
     15 C         140.3820  147.6128  153.8301 C.ar    1  UNL1        0.0786
     16 C         140.1942  148.9886  153.2624 C.3     1  UNL1        0.0538
     17 C         139.6951  147.0580  155.0427 C.ar    1  UNL1        0.0963
     18 O         138.1935  143.4752  154.6820 O.3     1  UNL1       -0.4551
     19 C         136.9809  144.2575  154.2725 C.3     1  UNL1        0.2543
     20 N         137.3026  141.0288  163.2265 N.pl3   1  UNL1       -0.2786
     21 H         136.4437  140.6094  163.4625 H       1  UNL1        0.1555
     22 N         138.4792  143.0575  164.5090 N.ar    1  UNL1       -0.2383
     23 N         139.3921  143.1769  165.6932 N.ar    1  UNL1       -0.1729
     24 C         139.6544  141.7961  166.2174 C.ar    1  UNL1        0.0766
     25 C         138.9035  140.8234  165.3572 C.ar    1  UNL1        0.0241
     26 C         138.1773  141.6030  164.3013 C.ar    1  UNL1        0.1275
     27 C         139.1658  139.4427  165.8814 C.3     1  UNL1        0.0267
     28 C         138.6123  138.1666  165.3200 C.3     1  UNL1        0.0048
     29 C         140.0787  139.5621  167.0656 C.3     1  UNL1        0.0101
     30 C         140.3807  141.0166  167.2732 C.3     1  UNL1        0.0372
     31 C         141.2061  140.5194  168.4227 C.3     1  UNL1        0.0060
     32 C         140.8552  142.3672  167.7212 C.3     1  UNL1        0.0060
     33 C         138.9177  145.1479  163.0299 C.3     1  UNL1        0.0285
     34 C         137.9595  144.1932  163.6783 C.3     1  UNL1        0.1289
@<TRIPOS>BOND
     1    33    34    1
     2    34    22    1
     3    22    23   ar
     4    23    24   ar
     5    24    25   ar
     6    25    26   ar
     7    26    20    1
     8    20     1    1
     9     1     2   ar
    10     2     3   ar
    11     3     6    1
    12     6     7   ar
    13     7     8   ar
    14     8     9   ar
    15     9    12    1
    16    12    13   ar
    17    13    14   ar
    18    14    15   ar
    19    15    16    1
    20    15    17   ar
    21     9    10   ar
    22    10    18    1
    23    18    19    1
    24    10    11   ar
    25     3     4   ar
    26     4     5   ar
    27    25    27    1
    28    27    28    1
    29    27    29    1
    30    29    30    1
    31    30    31    1
    32    30    32    1
    33    26    22   ar
    34     5     1   ar
    35    30    24    1
    36    11     6   ar
    37    17    12   ar
    38    20    21    1
@<TRIPOS>MOLECULE
*****
 34 38 0 0 0
SMALL
GASTEIGER

@<TRIPOS>ATOM
      1 C         143.4459  142.4915  164.4385 C.ar    1  UNL1        0.1646
      2 N         142.6109  142.4237  163.1941 N.ar    1  UNL1       -0.2224
      3 C         142.7610  143.7252  162.4637 C.ar    1  UNL1        0.1074
      4 C         143.6887  144.5974  163.2566 C.ar    1  UNL1        0.0588
      5 S         144.1120  143.8350  164.4770 S.2     1  UNL1       -0.0508
      6 C         142.0996  144.0904  161.1680 C.ar    1  UNL1        0.1026
      7 C         140.7715  144.7878  161.1743 C.ar    1  UNL1        0.0224
      8 C         140.1101  145.1530  159.8783 C.ar    1  UNL1        0.0239
      9 C         140.7766  144.8209  158.5763 C.ar    1  UNL1        0.1189
     10 C         142.1047  144.1235  158.5701 C.ar    1  UNL1        0.2416
     11 N         142.7661  143.7583  159.8659 N.ar    1  UNL1       -0.2089
     12 N         140.1151  145.1861  157.2806 N.ar    1  UNL1       -0.2826
     13 C         140.1527  146.5324  156.6202 C.ar    1  UNL1        0.1826
     14 N         139.3607  146.4475  155.3492 N.ar    1  UNL1       -0.2280
     15 C         138.8337  145.0487  155.2240 C.ar    1  UNL1        0.0786
     16 C         137.9888  144.5220  154.1020 C.3     1  UNL1        0.0538
     17 C         139.3000  144.2691  156.4176 C.ar    1  UNL1        0.0963
     18 O         142.7712  143.7913  157.2680 O.3     1  UNL1       -0.4551
     19 C         142.7167  142.3910  156.7332 C.3     1  UNL1        0.2543
     20 N         143.5894  141.4064  165.4641 N.pl3   1  UNL1       -0.2786
     21 H         144.4301  140.8981  165.5286 H       1  UNL1        0.1555
     22 N         142.3320  141.5398  167.8192 N.ar    1  UNL1       -0.2383
     23 N         141.0409  141.0048  168.3639 N.ar    1  UNL1       -0.1729
     24 C         140.3630  140.2301  167.2729 C.ar    1  UNL1        0.0766
     25 C         141.2352  140.2862  166.0539 C.ar    1  UNL1        0.0241
     26 C         142.4521  141.0957  166.3915 C.ar    1  UNL1        0.1275
     27 C         140.5573  139.5115  164.9629 C.3     1  UNL1        0.0267
     28 C         141.0790  139.3075  163.5714 C.3     1  UNL1        0.0048
     29 C         139.2662  138.9766  165.5077 C.3     1  UNL1        0.0101
     30 C         139.1461  139.4206  166.9353 C.3     1  UNL1        0.0372
     31 C         137.8473  138.6713  166.8944 C.3     1  UNL1        0.0060
     32 C         138.7545  139.7081  168.3544 C.3     1  UNL1        0.0060
     33 C         143.1935  142.5465  170.0540 C.3     1  UNL1        0.0285
     34 C         143.3282  142.3726  168.5702 C.3     1  UNL1        0.1289
@<TRIPOS>BOND
     1    33    34    1
     2    34    22    1
     3    22    23   ar
     4    23    24   ar
     5    24    25   ar
     6    25    26   ar
     7    26    20    1
     8    20     1    1
     9     1     2   ar
    10     2     3   ar
    11     3     6    1
    12     6     7   ar
    13     7     8   ar
    14     8     9   ar
    15     9    12    1
    16    12    13   ar
    17    13    14   ar
    18    14    15   ar
    19    15    16    1
    20    15    17   ar
    21     9    10   ar
    22    10    18    1
    23    18    19    1
    24    10    11   ar
    25     3     4   ar
    26     4     5   ar
    27    25    27    1
    28    27    28    1
    29    27    29    1
    30    29    30    1
    31    30    31    1
    32    30    32    1
    33    26    22   ar
    34     5     1   ar
    35    30    24    1
    36    11     6   ar
    37    17    12   ar
    38    20    21    1
@<TRIPOS>MOLECULE
*****
 34 38 0 0 0
SMALL
GASTEIGER

@<TRIPOS>ATOM
      1 C         143.2722  143.0679  160.0937 C.ar    1  UNL1        0.1646
      2 N         143.3841  141.5763  159.9812 N.ar    1  UNL1       -0.2224
      3 C         142.9559  141.1822  158.5987 C.ar    1  UNL1        0.1074
      4 C         142.5794  142.4303  157.8567 C.ar    1  UNL1        0.0588
      5 S         142.7749  143.5956  158.7806 S.2     1  UNL1       -0.0508
      6 C         142.9119  139.7854  158.0539 C.ar    1  UNL1        0.1026
      7 C         142.7268  138.6231  158.9839 C.ar    1  UNL1        0.0224
      8 C         142.6828  137.2262  158.4390 C.ar    1  UNL1        0.0239
      9 C         142.8239  136.9916  156.9643 C.ar    1  UNL1        0.1189
     10 C         143.0090  138.1539  156.0343 C.ar    1  UNL1        0.2416
     11 N         143.0530  139.5508  156.5791 N.ar    1  UNL1       -0.2089
     12 N         142.7799  135.5948  156.4195 N.ar    1  UNL1       -0.2826
     13 C         141.6432  134.9813  155.6568 C.ar    1  UNL1        0.1826
     14 N         142.0257  133.5735  155.3076 N.ar    1  UNL1       -0.2280
     15 C         143.3987  133.3170  155.8545 C.ar    1  UNL1        0.0786
     16 C         144.1702  132.0360  155.7351 C.3     1  UNL1        0.0538
     17 C         143.8649  134.5662  156.5417 C.ar    1  UNL1        0.0963
     18 O         143.1502  137.9193  154.5595 O.3     1  UNL1       -0.4551
     19 C         142.6098  138.9237  153.5852 C.3     1  UNL1        0.2543
     20 N         143.6001  143.8877  161.3063 N.pl3   1  UNL1       -0.2786
     21 H         144.2857  144.5923  161.2534 H       1  UNL1        0.1555
     22 N         143.4017  142.8235  163.7503 N.ar    1  UNL1       -0.2383
     23 N         142.3614  142.8349  164.8308 N.ar    1  UNL1       -0.1729
     24 C         141.2002  143.6524  164.3477 C.ar    1  UNL1        0.0766
     25 C         141.5229  144.1463  162.9686 C.ar    1  UNL1        0.0241
     26 C         142.8835  143.6340  162.5994 C.ar    1  UNL1        0.1275
     27 C         140.3618  144.9638  162.4855 C.3     1  UNL1        0.0267
     28 C         140.2590  145.6496  161.1554 C.3     1  UNL1        0.0048
     29 C         139.3215  144.9752  163.5660 C.3     1  UNL1        0.0101
     30 C         139.8396  144.1647  164.7169 C.3     1  UNL1        0.0372
     31 C         138.5301  144.5232  165.3546 C.3     1  UNL1        0.0060
     32 C         140.0840  143.4291  166.0011 C.3     1  UNL1        0.0060
     33 C         144.7844  140.6422  164.0334 C.3     1  UNL1        0.0285
     34 C         144.7275  142.1244  163.8101 C.3     1  UNL1        0.1289
@<TRIPOS>BOND
     1    33    34    1
     2    34    22    1
     3    22    23   ar
     4    23    24   ar
     5    24    25   ar
     6    25    26   ar
     7    26    20    1
     8    20     1    1
     9     1     2   ar
    10     2     3   ar
    11     3     6    1
    12     6     7   ar
    13     7     8   ar
    14     8     9   ar
    15     9    12    1
    16    12    13   ar
    17    13    14   ar
    18    14    15   ar
    19    15    16    1
    20    15    17   ar
    21     9    10   ar
    22    10    18    1
    23    18    19    1
    24    10    11   ar
    25     3     4   ar
    26     4     5   ar
    27    25    27    1
    28    27    28    1
    29    27    29    1
    30    29    30    1
    31    30    31    1
    32    30    32    1
    33    26    22   ar
    34     5     1   ar
    35    30    24    1
    36    11     6   ar
    37    17    12   ar
    38    20    21    1
