@<TRIPOS>MOLECULE
*****
 42 45 0 0 0
SMALL
GASTEIGER

@<TRIPOS>ATOM
      1 C         142.8734  138.1093  159.9338 C.3     1  UNL1        0.0889
      2 C         142.3942  137.6814  158.5784 C.3     1  UNL1        0.0383
      3 C         142.9580  138.6333  157.5655 C.3     1  UNL1        0.0739
      4 N         143.7858  139.6496  158.2949 N.3     1  UNL1       -0.2700
      5 C         143.7335  139.3257  159.7586 C.3     1  UNL1        0.0919
      6 O         140.6748  139.1845  161.6688 O.2     1  UNL1       -0.2733
      7 C         141.4502  137.9762  162.1033 C.2     1  UNL1        0.2425
      8 N         142.5495  137.4386  161.2358 N.am    1  UNL1       -0.3032
      9 H         143.0584  136.6455  161.5210 H       1  UNL1        0.1495
     10 C         141.1263  137.3055  163.4053 C.3     1  UNL1        0.1759
     11 N         140.7854  138.1315  164.6101 N.am    1  UNL1       -0.2931
     12 C         141.8799  138.7224  165.4485 C.2     1  UNL1        0.2462
     13 O         143.3153  138.4873  165.0821 O.2     1  UNL1       -0.2701
     14 H         139.8433  138.2858  164.8506 H       1  UNL1        0.1502
     15 C         141.5390  139.5484  166.6533 C.ar    1  UNL1        0.0533
     16 C         140.1247  139.6019  167.1502 C.ar    1  UNL1        0.0045
     17 C         139.7839  140.4279  168.3550 C.ar    1  UNL1        0.0001
     18 C         140.8573  141.2005  169.0628 C.ar    1  UNL1        0.0039
     19 C         142.2715  141.1470  168.5658 C.ar    1  UNL1        0.0716
     20 C         142.6124  140.3210  167.3611 C.ar    1  UNL1        0.0084
     21 C         143.3449  141.9195  169.2737 C.3     1  UNL1        0.4186
     22 F         144.4183  142.6920  169.9815 F       1  UNL1       -0.1659
     23 F         143.7046  142.5996  167.9860 F       1  UNL1       -0.1659
     24 F         142.9853  141.2394  170.5613 F       1  UNL1       -0.1659
     25 C         144.5344  140.7895  157.6704 C.3     1  UNL1        0.0897
     26 C         144.2951  142.1927  158.1435 C.3     1  UNL1        0.0897
     27 N         143.8773  142.4449  159.5619 N.3     1  UNL1       -0.2686
     28 C         142.4257  142.6217  159.8959 C.3     1  UNL1        0.0939
     29 C         142.0079  142.8739  161.3144 C.3     1  UNL1        0.1110
     30 N         143.0417  142.9494  162.3986 N.am    1  UNL1       -0.2732
     31 C         142.6239  143.2016  163.8170 C.2     1  UNL1        0.2514
     32 O         143.6576  143.2771  164.9013 O.2     1  UNL1       -0.2698
     33 C         144.4933  142.7726  162.0645 C.3     1  UNL1        0.1110
     34 C         144.9111  142.5204  160.6461 C.3     1  UNL1        0.0939
     35 C         141.1723  143.3784  164.1511 C.ar    1  UNL1        0.0832
     36 C         140.3334  142.1862  164.5045 C.ar    1  UNL1        0.0364
     37 C         138.8818  142.3630  164.8385 C.ar    1  UNL1        0.1404
     38 F         138.0429  141.1707  165.1919 F       1  UNL1       -0.2042
     39 C         138.2691  143.7320  164.8193 C.ar    1  UNL1        0.0319
     40 C         139.1080  144.9242  164.4659 C.ar    1  UNL1        0.0321
     41 C         140.5596  144.7475  164.1318 C.ar    1  UNL1        0.1446
     42 F         141.3985  145.9396  163.7785 F       1  UNL1       -0.2040
@<TRIPOS>BOND
     1     6     7    2
     2     7    10    1
     3    10    11    1
     4    11    12   am
     5    12    13    2
     6    12    15    1
     7    15    16   ar
     8    16    17   ar
     9    17    18   ar
    10    18    19   ar
    11    19    21    1
    12    21    22    1
    13    21    23    1
    14    21    24    1
    15    19    20   ar
    16     7     8   am
    17     1     8    1
    18     1     2    1
    19     2     3    1
    20     3     4    1
    21     4    25    1
    22    25    26    1
    23    26    27    1
    24    27    28    1
    25    28    29    1
    26    29    30    1
    27    30    31   am
    28    31    32    2
    29    31    35    1
    30    35    36   ar
    31    36    37   ar
    32    37    38    1
    33    37    39   ar
    34    39    40   ar
    35    40    41   ar
    36    41    42    1
    37    30    33    1
    38    33    34    1
    39     4     5    1
    40    20    15   ar
    41     5     1    1
    42    34    27    1
    43    41    35   ar
    44    11    14    1
    45     8     9    1
@<TRIPOS>MOLECULE
*****
 42 45 0 0 0
SMALL
GASTEIGER

@<TRIPOS>ATOM
      1 C         141.1721  144.6013  159.7382 C.3     1  UNL1        0.0889
      2 C         141.5751  144.9677  158.3406 C.3     1  UNL1        0.0383
      3 C         140.5735  144.3696  157.3976 C.3     1  UNL1        0.0739
      4 N         139.5516  143.6336  158.2124 N.3     1  UNL1       -0.2700
      5 C         139.9215  143.7768  159.6590 C.3     1  UNL1        0.0919
      6 O         142.9394  142.6168  161.1306 O.2     1  UNL1       -0.2733
      7 C         142.7767  143.9987  161.6907 C.2     1  UNL1        0.2425
      8 N         141.8931  144.9910  160.9946 N.am    1  UNL1       -0.3032
      9 H         141.7864  145.8980  161.3622 H       1  UNL1        0.1495
     10 C         143.4977  144.3884  162.9470 C.3     1  UNL1        0.1759
     11 N         143.1362  143.7408  164.2509 N.am    1  UNL1       -0.2931
     12 C         143.7421  142.4209  164.6260 C.2     1  UNL1        0.2462
     13 O         144.7094  141.7486  163.6974 O.2     1  UNL1       -0.2701
     14 H         142.5013  144.1820  164.8604 H       1  UNL1        0.1502
     15 C         143.3806  141.7732  165.9299 C.ar    1  UNL1        0.0533
     16 C         142.9850  140.3268  165.9646 C.ar    1  UNL1        0.0045
     17 C         142.6236  139.6792  167.2684 C.ar    1  UNL1        0.0001
     18 C         142.6578  140.4781  168.5375 C.ar    1  UNL1        0.0039
     19 C         143.0534  141.9245  168.5028 C.ar    1  UNL1        0.0716
     20 C         143.4148  142.5721  167.1990 C.ar    1  UNL1        0.0084
     21 C         143.0876  142.7234  169.7719 C.3     1  UNL1        0.4186
     22 F         143.1217  143.5222  171.0411 F       1  UNL1       -0.1659
     23 F         141.6687  143.1516  169.5406 F       1  UNL1       -0.1659
     24 F         144.5064  142.2952  170.0033 F       1  UNL1       -0.1659
     25 C         138.3676  142.8857  157.6750 C.3     1  UNL1        0.0897
     26 C         138.2969  141.3938  157.8135 C.3     1  UNL1        0.0897
     27 N         138.8441  140.7279  159.0412 N.3     1  UNL1       -0.2686
     28 C         138.1239  140.8602  160.3503 C.3     1  UNL1        0.0939
     29 C         138.6711  140.1942  161.5780 C.3     1  UNL1        0.1110
     30 N         139.9385  139.3960  161.4964 N.am    1  UNL1       -0.2732
     31 C         140.4857  138.7301  162.7242 C.2     1  UNL1        0.2514
     32 O         141.7530  137.9319  162.6427 O.2     1  UNL1       -0.2698
     33 C         140.6587  139.2637  160.1873 C.3     1  UNL1        0.1110
     34 C         140.1115  139.9297  158.9597 C.3     1  UNL1        0.0939
     35 C         139.7655  138.8624  164.0333 C.ar    1  UNL1        0.0832
     36 C         139.0577  137.6787  164.6229 C.ar    1  UNL1        0.0364
     37 C         138.3375  137.8110  165.9320 C.ar    1  UNL1        0.1404
     38 F         137.6297  136.6272  166.5217 F       1  UNL1       -0.2042
     39 C         138.3251  139.1271  166.6515 C.ar    1  UNL1        0.0319
     40 C         139.0329  140.3109  166.0618 C.ar    1  UNL1        0.0321
     41 C         139.7531  140.1786  164.7527 C.ar    1  UNL1        0.1446
     42 F         140.4608  141.3623  164.1631 F       1  UNL1       -0.2040
@<TRIPOS>BOND
     1     6     7    2
     2     7    10    1
     3    10    11    1
     4    11    12   am
     5    12    13    2
     6    12    15    1
     7    15    16   ar
     8    16    17   ar
     9    17    18   ar
    10    18    19   ar
    11    19    21    1
    12    21    22    1
    13    21    23    1
    14    21    24    1
    15    19    20   ar
    16     7     8   am
    17     1     8    1
    18     1     2    1
    19     2     3    1
    20     3     4    1
    21     4    25    1
    22    25    26    1
    23    26    27    1
    24    27    28    1
    25    28    29    1
    26    29    30    1
    27    30    31   am
    28    31    32    2
    29    31    35    1
    30    35    36   ar
    31    36    37   ar
    32    37    38    1
    33    37    39   ar
    34    39    40   ar
    35    40    41   ar
    36    41    42    1
    37    30    33    1
    38    33    34    1
    39     4     5    1
    40    20    15   ar
    41     5     1    1
    42    34    27    1
    43    41    35   ar
    44    11    14    1
    45     8     9    1
@<TRIPOS>MOLECULE
*****
 42 45 0 0 0
SMALL
GASTEIGER

@<TRIPOS>ATOM
      1 C         138.2672  141.0773  157.8024 C.3     1  UNL1        0.0889
      2 C         138.7400  140.5727  156.4713 C.3     1  UNL1        0.0383
      3 C         139.3385  141.7274  155.7239 C.3     1  UNL1        0.0739
      4 N         139.2355  142.9456  156.5931 N.3     1  UNL1       -0.2700
      5 C         138.5735  142.5438  157.8777 C.3     1  UNL1        0.0919
      6 O         139.6748  140.5863  160.4058 O.2     1  UNL1       -0.2733
      7 C         138.3083  140.0136  160.1724 C.2     1  UNL1        0.2425
      8 N         137.6044  140.2590  158.8708 N.am    1  UNL1       -0.3032
      9 H         136.7075  139.8831  158.7176 H       1  UNL1        0.1495
     10 C         137.6455  139.1953  161.2407 C.3     1  UNL1        0.1759
     11 N         138.2420  139.1322  162.6156 N.am    1  UNL1       -0.2931
     12 C         138.0110  140.2528  163.5855 C.2     1  UNL1        0.2462
     13 O         137.1834  141.4366  163.1807 O.2     1  UNL1       -0.2701
     14 H         138.7852  138.3553  162.8813 H       1  UNL1        0.1502
     15 C         138.6075  140.1897  164.9604 C.ar    1  UNL1        0.0533
     16 C         137.9888  139.3110  166.0068 C.ar    1  UNL1        0.0045
     17 C         138.5853  139.2480  167.3816 C.ar    1  UNL1        0.0001
     18 C         139.8006  140.0636  167.7100 C.ar    1  UNL1        0.0039
     19 C         140.4193  140.9423  166.6636 C.ar    1  UNL1        0.0716
     20 C         139.8228  141.0054  165.2888 C.ar    1  UNL1        0.0084
     21 C         141.6346  141.7580  166.9920 C.3     1  UNL1        0.4186
     22 F         142.8498  142.5736  167.3204 F       1  UNL1       -0.1659
     23 F         141.0324  142.9382  166.2889 F       1  UNL1       -0.1659
     24 F         142.2367  140.5777  167.6952 F       1  UNL1       -0.1659
     25 C         139.7112  144.3236  156.2397 C.3     1  UNL1        0.0897
     26 C         140.9192  144.8972  156.9192 C.3     1  UNL1        0.0897
     27 N         141.0832  144.7549  158.4034 N.3     1  UNL1       -0.2686
     28 C         142.0887  143.7896  158.9576 C.3     1  UNL1        0.0939
     29 C         142.2528  143.6473  160.4419 C.3     1  UNL1        0.1110
     30 N         141.4112  144.4702  161.3717 N.am    1  UNL1       -0.2732
     31 C         141.5753  144.3278  162.8560 C.2     1  UNL1        0.2514
     32 O         140.7337  145.1506  163.7859 O.2     1  UNL1       -0.2698
     33 C         140.4057  145.4354  160.8175 C.3     1  UNL1        0.1110
     34 C         140.2417  145.5777  159.3333 C.3     1  UNL1        0.0939
     35 C         142.5808  143.3625  163.4102 C.ar    1  UNL1        0.0832
     36 C         142.3870  141.8871  163.2222 C.ar    1  UNL1        0.0364
     37 C         143.3926  140.9219  163.7764 C.ar    1  UNL1        0.1404
     38 F         143.1987  139.4464  163.5884 F       1  UNL1       -0.2042
     39 C         144.5919  141.4322  164.5187 C.ar    1  UNL1        0.0319
     40 C         144.7858  142.9077  164.7068 C.ar    1  UNL1        0.0321
     41 C         143.7802  143.8729  164.1525 C.ar    1  UNL1        0.1446
     42 F         143.9741  145.3483  164.3406 F       1  UNL1       -0.2040
@<TRIPOS>BOND
     1     6     7    2
     2     7    10    1
     3    10    11    1
     4    11    12   am
     5    12    13    2
     6    12    15    1
     7    15    16   ar
     8    16    17   ar
     9    17    18   ar
    10    18    19   ar
    11    19    21    1
    12    21    22    1
    13    21    23    1
    14    21    24    1
    15    19    20   ar
    16     7     8   am
    17     1     8    1
    18     1     2    1
    19     2     3    1
    20     3     4    1
    21     4    25    1
    22    25    26    1
    23    26    27    1
    24    27    28    1
    25    28    29    1
    26    29    30    1
    27    30    31   am
    28    31    32    2
    29    31    35    1
    30    35    36   ar
    31    36    37   ar
    32    37    38    1
    33    37    39   ar
    34    39    40   ar
    35    40    41   ar
    36    41    42    1
    37    30    33    1
    38    33    34    1
    39     4     5    1
    40    20    15   ar
    41     5     1    1
    42    34    27    1
    43    41    35   ar
    44    11    14    1
    45     8     9    1
@<TRIPOS>MOLECULE
*****
 42 45 0 0 0
SMALL
GASTEIGER

@<TRIPOS>ATOM
      1 C         143.5856  140.5312  157.9325 C.3     1  UNL1        0.0889
      2 C         143.6885  140.3419  156.4480 C.3     1  UNL1        0.0383
      3 C         143.2787  141.6249  155.7877 C.3     1  UNL1        0.0739
      4 N         142.9225  142.6071  156.8641 N.3     1  UNL1       -0.2700
      5 C         143.1122  141.9311  158.1896 C.3     1  UNL1        0.0919
      6 O         141.5543  138.4390  158.6371 O.2     1  UNL1       -0.2733
      7 C         142.8851  138.4552  159.3288 C.2     1  UNL1        0.2425
      8 N         143.9008  139.5013  158.9766 N.am    1  UNL1       -0.3032
      9 H         144.7743  139.5119  159.4306 H       1  UNL1        0.1495
     10 C         143.2004  137.4254  160.3729 C.3     1  UNL1        0.1759
     11 N         142.6727  137.5857  161.7679 N.am    1  UNL1       -0.2931
     12 C         143.1532  138.7182  162.6260 C.2     1  UNL1        0.2462
     13 O         144.1615  139.6904  162.0892 O.2     1  UNL1       -0.2701
     14 H         142.0109  136.9475  162.1202 H       1  UNL1        0.1502
     15 C         142.6255  138.8784  164.0210 C.ar    1  UNL1        0.0533
     16 C         143.5776  138.9957  165.1742 C.ar    1  UNL1        0.0045
     17 C         143.0498  139.1560  166.5690 C.ar    1  UNL1        0.0001
     18 C         141.5701  139.1990  166.8108 C.ar    1  UNL1        0.0039
     19 C         140.6180  139.0817  165.6576 C.ar    1  UNL1        0.0716
     20 C         141.1457  138.9214  164.2628 C.ar    1  UNL1        0.0084
     21 C         139.1383  139.1247  165.8994 C.3     1  UNL1        0.4186
     22 F         137.6585  139.1677  166.1411 F       1  UNL1       -0.1659
     23 F         138.9363  138.0715  164.8506 F       1  UNL1       -0.1659
     24 F         139.3402  140.1779  166.9482 F       1  UNL1       -0.1659
     25 C         142.4582  144.0176  156.6521 C.3     1  UNL1        0.0897
     26 C         141.0363  144.3917  156.9493 C.3     1  UNL1        0.0897
     27 N         140.3779  143.8998  158.2041 N.3     1  UNL1       -0.2686
     28 C         140.7847  144.4614  159.5341 C.3     1  UNL1        0.0939
     29 C         140.1263  143.9694  160.7890 C.3     1  UNL1        0.1110
     30 N         139.0612  142.9160  160.7137 N.am    1  UNL1       -0.2732
     31 C         138.4028  142.4240  161.9686 C.2     1  UNL1        0.2514
     32 O         137.3377  141.3706  161.8933 O.2     1  UNL1       -0.2698
     33 C         138.6544  142.3544  159.3836 C.3     1  UNL1        0.1110
     34 C         139.3128  142.8463  158.1288 C.3     1  UNL1        0.0939
     35 C         138.8096  142.9856  163.2986 C.ar    1  UNL1        0.0832
     36 C         139.9252  142.3481  164.0724 C.ar    1  UNL1        0.0364
     37 C         140.3320  142.9096  165.4025 C.ar    1  UNL1        0.1404
     38 F         141.4477  142.2721  166.1763 F       1  UNL1       -0.2042
     39 C         139.6231  144.1088  165.9588 C.ar    1  UNL1        0.0319
     40 C         138.5074  144.7464  165.1850 C.ar    1  UNL1        0.0321
     41 C         138.1006  144.1848  163.8549 C.ar    1  UNL1        0.1446
     42 F         136.9850  144.8223  163.0811 F       1  UNL1       -0.2040
@<TRIPOS>BOND
     1     6     7    2
     2     7    10    1
     3    10    11    1
     4    11    12   am
     5    12    13    2
     6    12    15    1
     7    15    16   ar
     8    16    17   ar
     9    17    18   ar
    10    18    19   ar
    11    19    21    1
    12    21    22    1
    13    21    23    1
    14    21    24    1
    15    19    20   ar
    16     7     8   am
    17     1     8    1
    18     1     2    1
    19     2     3    1
    20     3     4    1
    21     4    25    1
    22    25    26    1
    23    26    27    1
    24    27    28    1
    25    28    29    1
    26    29    30    1
    27    30    31   am
    28    31    32    2
    29    31    35    1
    30    35    36   ar
    31    36    37   ar
    32    37    38    1
    33    37    39   ar
    34    39    40   ar
    35    40    41   ar
    36    41    42    1
    37    30    33    1
    38    33    34    1
    39     4     5    1
    40    20    15   ar
    41     5     1    1
    42    34    27    1
    43    41    35   ar
    44    11    14    1
    45     8     9    1
@<TRIPOS>MOLECULE
*****
 42 45 0 0 0
SMALL
GASTEIGER

@<TRIPOS>ATOM
      1 C         141.1718  145.0915  159.2846 C.3     1  UNL1        0.0889
      2 C         141.8236  145.4933  157.9948 C.3     1  UNL1        0.0383
      3 C         141.0302  144.8983  156.8694 C.3     1  UNL1        0.0739
      4 N         139.8880  144.1288  157.4637 N.3     1  UNL1       -0.2700
      5 C         139.9754  144.2482  158.9563 C.3     1  UNL1        0.0919
      6 O         142.0593  142.9616  161.2019 O.2     1  UNL1       -0.2733
      7 C         142.0786  144.4021  161.6197 C.2     1  UNL1        0.2425
      8 N         141.6349  145.4671  160.6611 N.am    1  UNL1       -0.3032
      9 H         141.6475  146.4125  160.9353 H       1  UNL1        0.1495
     10 C         142.5417  144.7777  162.9960 C.3     1  UNL1        0.1759
     11 N         142.5559  143.7504  164.0890 N.am    1  UNL1       -0.2931
     12 C         141.2750  143.3505  164.7592 C.2     1  UNL1        0.2462
     13 O         139.9797  143.9780  164.3365 O.2     1  UNL1       -0.2701
     14 H         143.4060  143.3386  164.3664 H       1  UNL1        0.1502
     15 C         141.2892  142.3232  165.8521 C.ar    1  UNL1        0.0533
     16 C         140.4518  142.5231  167.0803 C.ar    1  UNL1        0.0045
     17 C         140.4660  141.4958  168.1732 C.ar    1  UNL1        0.0001
     18 C         141.3178  140.2685  168.0378 C.ar    1  UNL1        0.0039
     19 C         142.1553  140.0686  166.8096 C.ar    1  UNL1        0.0716
     20 C         142.1410  141.0959  165.7167 C.ar    1  UNL1        0.0084
     21 C         143.0070  138.8413  166.6742 C.3     1  UNL1        0.4186
     22 F         143.8588  137.6140  166.5388 F       1  UNL1       -0.1659
     23 F         143.0203  138.6860  168.1661 F       1  UNL1       -0.1659
     24 F         142.9937  138.9967  165.1823 F       1  UNL1       -0.1659
     25 C         138.8419  143.3726  156.6995 C.3     1  UNL1        0.0897
     26 C         138.6938  141.8928  156.8944 C.3     1  UNL1        0.0897
     27 N         139.2826  141.2333  158.1061 N.3     1  UNL1       -0.2686
     28 C         138.4749  141.1193  159.3649 C.3     1  UNL1        0.0939
     29 C         139.0638  140.4598  160.5768 C.3     1  UNL1        0.1110
     30 N         140.4603  139.9144  160.5296 N.am    1  UNL1       -0.2732
     31 C         141.0491  139.2548  161.7414 C.2     1  UNL1        0.2514
     32 O         142.4457  138.7094  161.6944 O.2     1  UNL1       -0.2698
     33 C         141.2680  140.0284  159.2708 C.3     1  UNL1        0.1110
     34 C         140.6792  140.6878  158.0591 C.3     1  UNL1        0.0939
     35 C         140.2414  139.1408  163.0003 C.ar    1  UNL1        0.0832
     36 C         139.4483  140.3153  163.4914 C.ar    1  UNL1        0.0364
     37 C         138.6406  140.2013  164.7502 C.ar    1  UNL1        0.1404
     38 F         137.8474  141.3759  165.2413 F       1  UNL1       -0.2042
     39 C         138.6261  138.9127  165.5178 C.ar    1  UNL1        0.0319
     40 C         139.4193  137.7382  165.0267 C.ar    1  UNL1        0.0321
     41 C         140.2270  137.8522  163.7679 C.ar    1  UNL1        0.1446
     42 F         141.0202  136.6777  163.2768 F       1  UNL1       -0.2040
@<TRIPOS>BOND
     1     6     7    2
     2     7    10    1
     3    10    11    1
     4    11    12   am
     5    12    13    2
     6    12    15    1
     7    15    16   ar
     8    16    17   ar
     9    17    18   ar
    10    18    19   ar
    11    19    21    1
    12    21    22    1
    13    21    23    1
    14    21    24    1
    15    19    20   ar
    16     7     8   am
    17     1     8    1
    18     1     2    1
    19     2     3    1
    20     3     4    1
    21     4    25    1
    22    25    26    1
    23    26    27    1
    24    27    28    1
    25    28    29    1
    26    29    30    1
    27    30    31   am
    28    31    32    2
    29    31    35    1
    30    35    36   ar
    31    36    37   ar
    32    37    38    1
    33    37    39   ar
    34    39    40   ar
    35    40    41   ar
    36    41    42    1
    37    30    33    1
    38    33    34    1
    39     4     5    1
    40    20    15   ar
    41     5     1    1
    42    34    27    1
    43    41    35   ar
    44    11    14    1
    45     8     9    1
@<TRIPOS>MOLECULE
*****
 42 45 0 0 0
SMALL
GASTEIGER

@<TRIPOS>ATOM
      1 C         139.2386  140.5602  157.4988 C.3     1  UNL1        0.0889
      2 C         138.6716  141.2576  156.2980 C.3     1  UNL1        0.0383
      3 C         139.8069  141.8953  155.5533 C.3     1  UNL1        0.0739
      4 N         141.0756  141.5920  156.2940 N.3     1  UNL1       -0.2700
      5 C         140.7243  140.7668  157.4964 C.3     1  UNL1        0.0919
      6 O         138.5996  141.8117  160.1494 O.2     1  UNL1       -0.2733
      7 C         138.1376  140.4168  159.8478 C.2     1  UNL1        0.2425
      8 N         138.4571  139.7911  158.5225 N.am    1  UNL1       -0.3032
      9 H         138.1539  138.8756  158.3246 H       1  UNL1        0.1495
     10 C         137.3562  139.6477  160.8713 C.3     1  UNL1        0.1759
     11 N         137.9266  139.4286  162.2413 N.am    1  UNL1       -0.2931
     12 C         137.7230  140.4590  163.3121 C.2     1  UNL1        0.2462
     13 O         136.9489  141.7086  163.0131 O.2     1  UNL1       -0.2701
     14 H         138.4346  138.6085  162.4376 H       1  UNL1        0.1502
     15 C         138.2934  140.2399  164.6821 C.ar    1  UNL1        0.0533
     16 C         138.1172  138.9160  165.3649 C.ar    1  UNL1        0.0045
     17 C         138.6877  138.6970  166.7348 C.ar    1  UNL1        0.0001
     18 C         139.4342  139.8018  167.4218 C.ar    1  UNL1        0.0039
     19 C         139.6104  141.1256  166.7390 C.ar    1  UNL1        0.0716
     20 C         139.0400  141.3447  165.3691 C.ar    1  UNL1        0.0084
     21 C         140.3570  142.2304  167.4260 C.3     1  UNL1        0.4186
     22 F         141.1036  143.3352  168.1131 F       1  UNL1       -0.1659
     23 F         140.1081  143.1292  166.2512 F       1  UNL1       -0.1659
     24 F         140.6059  141.3316  168.6009 F       1  UNL1       -0.1659
     25 C         142.4535  142.0359  155.9012 C.3     1  UNL1        0.0897
     26 C         143.0619  143.2482  156.5416 C.3     1  UNL1        0.0897
     27 N         142.7547  143.5740  157.9732 N.3     1  UNL1       -0.2686
     28 C         143.4242  142.8098  159.0767 C.3     1  UNL1        0.0939
     29 C         143.1170  143.1357  160.5083 C.3     1  UNL1        0.1110
     30 N         142.1402  144.2258  160.8363 N.am    1  UNL1       -0.2732
     31 C         141.8329  144.5516  162.2680 C.2     1  UNL1        0.2514
     32 O         140.8561  145.6417  162.5960 O.2     1  UNL1       -0.2698
     33 C         141.4706  144.9900  159.7328 C.3     1  UNL1        0.1110
     34 C         141.7778  144.6641  158.3013 C.3     1  UNL1        0.0939
     35 C         142.5025  143.7875  163.3714 C.ar    1  UNL1        0.0832
     36 C         143.5897  144.4330  164.1783 C.ar    1  UNL1        0.0364
     37 C         144.2593  143.6689  165.2818 C.ar    1  UNL1        0.1404
     38 F         145.3465  144.3145  166.0887 F       1  UNL1       -0.2042
     39 C         143.8416  142.2590  165.5783 C.ar    1  UNL1        0.0319
     40 C         142.7544  141.6134  164.7714 C.ar    1  UNL1        0.0321
     41 C         142.0848  142.3776  163.6679 C.ar    1  UNL1        0.1446
     42 F         140.9976  141.7320  162.8610 F       1  UNL1       -0.2040
@<TRIPOS>BOND
     1     6     7    2
     2     7    10    1
     3    10    11    1
     4    11    12   am
     5    12    13    2
     6    12    15    1
     7    15    16   ar
     8    16    17   ar
     9    17    18   ar
    10    18    19   ar
    11    19    21    1
    12    21    22    1
    13    21    23    1
    14    21    24    1
    15    19    20   ar
    16     7     8   am
    17     1     8    1
    18     1     2    1
    19     2     3    1
    20     3     4    1
    21     4    25    1
    22    25    26    1
    23    26    27    1
    24    27    28    1
    25    28    29    1
    26    29    30    1
    27    30    31   am
    28    31    32    2
    29    31    35    1
    30    35    36   ar
    31    36    37   ar
    32    37    38    1
    33    37    39   ar
    34    39    40   ar
    35    40    41   ar
    36    41    42    1
    37    30    33    1
    38    33    34    1
    39     4     5    1
    40    20    15   ar
    41     5     1    1
    42    34    27    1
    43    41    35   ar
    44    11    14    1
    45     8     9    1
@<TRIPOS>MOLECULE
*****
 42 45 0 0 0
SMALL
GASTEIGER

@<TRIPOS>ATOM
      1 C         138.0944  140.4791  158.8528 C.3     1  UNL1        0.0889
      2 C         137.6712  140.0425  160.2240 C.3     1  UNL1        0.0383
      3 C         138.8340  140.2359  161.1516 C.3     1  UNL1        0.0739
      4 N         139.9760  140.7921  160.3536 N.3     1  UNL1       -0.2700
      5 C         139.5189  140.9424  158.9329 C.3     1  UNL1        0.0919
      6 O         137.6469  143.0022  157.2926 O.2     1  UNL1       -0.2733
      7 C         137.0191  141.7180  156.8381 C.2     1  UNL1        0.2425
      8 N         137.2428  140.4565  157.6181 N.am    1  UNL1       -0.3032
      9 H         136.8307  139.6136  157.3198 H       1  UNL1        0.1495
     10 C         136.1675  141.6953  155.6035 C.3     1  UNL1        0.1759
     11 N         134.6724  141.6736  155.7239 N.am    1  UNL1       -0.2931
     12 C         133.9553  140.3723  155.9289 C.2     1  UNL1        0.2462
     13 O         134.7330  139.0925  156.0135 O.2     1  UNL1       -0.2701
     14 H         134.1619  142.5136  155.6684 H       1  UNL1        0.1502
     15 C         132.4602  140.3507  156.0493 C.ar    1  UNL1        0.0533
     16 C         131.6425  141.4489  155.4368 C.ar    1  UNL1        0.0045
     17 C         130.1475  141.4273  155.5572 C.ar    1  UNL1        0.0001
     18 C         129.4703  140.3074  156.2901 C.ar    1  UNL1        0.0039
     19 C         130.2880  139.2091  156.9026 C.ar    1  UNL1        0.0716
     20 C         131.7829  139.2308  156.7822 C.ar    1  UNL1        0.0084
     21 C         129.6107  138.0892  157.6355 C.3     1  UNL1        0.4186
     22 F         128.9334  136.9693  158.3684 F       1  UNL1       -0.1659
     23 F         130.7105  138.0916  158.6555 F       1  UNL1       -0.1659
     24 F         128.5109  138.0868  156.6155 F       1  UNL1       -0.1659
     25 C         141.3361  141.1374  160.8834 C.3     1  UNL1        0.0897
     26 C         142.1841  140.0769  161.5209 C.3     1  UNL1        0.0897
     27 N         142.2495  139.9667  163.0154 N.3     1  UNL1       -0.2686
     28 C         141.4324  140.8881  163.8718 C.3     1  UNL1        0.0939
     29 C         141.4978  140.7780  165.3664 C.3     1  UNL1        0.1110
     30 N         142.3803  139.7465  166.0044 N.am    1  UNL1       -0.2732
     31 C         142.4457  139.6364  167.4990 C.2     1  UNL1        0.2514
     32 O         143.3282  138.6049  168.1371 O.2     1  UNL1       -0.2698
     33 C         143.1974  138.8251  165.1480 C.3     1  UNL1        0.1110
     34 C         143.1320  138.9352  163.6535 C.3     1  UNL1        0.0939
     35 C         141.6286  140.5578  168.3554 C.ar    1  UNL1        0.0832
     36 C         140.2879  140.1174  168.8636 C.ar    1  UNL1        0.0364
     37 C         139.4708  141.0388  169.7199 C.ar    1  UNL1        0.1404
     38 F         138.1299  140.5984  170.2282 F       1  UNL1       -0.2042
     39 C         139.9945  142.4006  170.0681 C.ar    1  UNL1        0.0319
     40 C         141.3353  142.8410  169.5598 C.ar    1  UNL1        0.0321
     41 C         142.1524  141.9196  168.7035 C.ar    1  UNL1        0.1446
     42 F         143.4931  142.3600  168.1953 F       1  UNL1       -0.2040
@<TRIPOS>BOND
     1     6     7    2
     2     7    10    1
     3    10    11    1
     4    11    12   am
     5    12    13    2
     6    12    15    1
     7    15    16   ar
     8    16    17   ar
     9    17    18   ar
    10    18    19   ar
    11    19    21    1
    12    21    22    1
    13    21    23    1
    14    21    24    1
    15    19    20   ar
    16     7     8   am
    17     1     8    1
    18     1     2    1
    19     2     3    1
    20     3     4    1
    21     4    25    1
    22    25    26    1
    23    26    27    1
    24    27    28    1
    25    28    29    1
    26    29    30    1
    27    30    31   am
    28    31    32    2
    29    31    35    1
    30    35    36   ar
    31    36    37   ar
    32    37    38    1
    33    37    39   ar
    34    39    40   ar
    35    40    41   ar
    36    41    42    1
    37    30    33    1
    38    33    34    1
    39     4     5    1
    40    20    15   ar
    41     5     1    1
    42    34    27    1
    43    41    35   ar
    44    11    14    1
    45     8     9    1
@<TRIPOS>MOLECULE
*****
 42 45 0 0 0
SMALL
GASTEIGER

@<TRIPOS>ATOM
      1 C         140.2942  143.9414  158.1713 C.3     1  UNL1        0.0889
      2 C         139.6000  144.5171  156.9727 C.3     1  UNL1        0.0383
      3 C         139.2932  143.3916  156.0298 C.3     1  UNL1        0.0739
      4 N         139.7978  142.1203  156.6456 N.3     1  UNL1       -0.2700
      5 C         140.4165  142.4601  157.9691 C.3     1  UNL1        0.0919
      6 O         138.8709  143.6941  160.8006 O.2     1  UNL1       -0.2733
      7 C         140.0691  144.5881  160.6776 C.2     1  UNL1        0.2425
      8 N         140.7808  144.7117  159.3630 N.am    1  UNL1       -0.3032
      9 H         141.5672  145.2984  159.2822 H       1  UNL1        0.1495
     10 C         140.5557  145.3584  161.8691 C.3     1  UNL1        0.1759
     11 N         141.1932  144.6368  163.0194 N.am    1  UNL1       -0.2931
     12 C         140.3537  144.1777  164.1747 C.2     1  UNL1        0.2462
     13 O         138.8769  144.4401  164.1796 O.2     1  UNL1       -0.2701
     14 H         142.1625  144.4646  163.0162 H       1  UNL1        0.1502
     15 C         140.9912  143.4562  165.3250 C.ar    1  UNL1        0.0533
     16 C         142.3927  142.9365  165.2004 C.ar    1  UNL1        0.0045
     17 C         143.0301  142.2151  166.3507 C.ar    1  UNL1        0.0001
     18 C         142.2659  142.0132  167.6255 C.ar    1  UNL1        0.0039
     19 C         140.8644  142.5329  167.7501 C.ar    1  UNL1        0.0716
     20 C         140.2270  143.2544  166.5998 C.ar    1  UNL1        0.0084
     21 C         140.1002  142.3311  169.0250 C.3     1  UNL1        0.4186
     22 F         139.3360  142.1293  170.2999 F       1  UNL1       -0.1659
     23 F         139.7785  140.9261  168.6098 F       1  UNL1       -0.1659
     24 F         140.4219  143.7361  169.4402 F       1  UNL1       -0.1659
     25 C         139.7008  140.7499  156.0435 C.3     1  UNL1        0.0897
     26 C         139.0575  139.6357  156.8147 C.3     1  UNL1        0.0897
     27 N         139.5142  139.3281  158.2100 N.3     1  UNL1       -0.2686
     28 C         138.6192  139.6291  159.3755 C.3     1  UNL1        0.0939
     29 C         139.0759  139.3215  160.7709 C.3     1  UNL1        0.1110
     30 N         140.4275  138.7129  161.0005 N.am    1  UNL1       -0.2732
     31 C         140.8842  138.4053  162.3959 C.2     1  UNL1        0.2514
     32 O         142.2359  137.7968  162.6256 O.2     1  UNL1       -0.2698
     33 C         141.3225  138.4120  159.8350 C.3     1  UNL1        0.1110
     34 C         140.8658  138.7196  158.4397 C.3     1  UNL1        0.0939
     35 C         139.9893  138.7063  163.5614 C.ar    1  UNL1        0.0832
     36 C         139.4041  137.5844  164.3669 C.ar    1  UNL1        0.0364
     37 C         138.5091  137.8853  165.5324 C.ar    1  UNL1        0.1404
     38 F         137.9239  136.7634  166.3380 F       1  UNL1       -0.2042
     39 C         138.1994  139.3082  165.8924 C.ar    1  UNL1        0.0319
     40 C         138.7846  140.4301  165.0869 C.ar    1  UNL1        0.0321
     41 C         139.6796  140.1291  163.9213 C.ar    1  UNL1        0.1446
     42 F         140.2647  141.2510  163.1158 F       1  UNL1       -0.2040
@<TRIPOS>BOND
     1     6     7    2
     2     7    10    1
     3    10    11    1
     4    11    12   am
     5    12    13    2
     6    12    15    1
     7    15    16   ar
     8    16    17   ar
     9    17    18   ar
    10    18    19   ar
    11    19    21    1
    12    21    22    1
    13    21    23    1
    14    21    24    1
    15    19    20   ar
    16     7     8   am
    17     1     8    1
    18     1     2    1
    19     2     3    1
    20     3     4    1
    21     4    25    1
    22    25    26    1
    23    26    27    1
    24    27    28    1
    25    28    29    1
    26    29    30    1
    27    30    31   am
    28    31    32    2
    29    31    35    1
    30    35    36   ar
    31    36    37   ar
    32    37    38    1
    33    37    39   ar
    34    39    40   ar
    35    40    41   ar
    36    41    42    1
    37    30    33    1
    38    33    34    1
    39     4     5    1
    40    20    15   ar
    41     5     1    1
    42    34    27    1
    43    41    35   ar
    44    11    14    1
    45     8     9    1
@<TRIPOS>MOLECULE
*****
 42 45 0 0 0
SMALL
GASTEIGER

@<TRIPOS>ATOM
      1 C         139.1999  141.1088  158.5751 C.3     1  UNL1        0.0889
      2 C         139.4028  141.8889  157.3101 C.3     1  UNL1        0.0383
      3 C         140.3129  141.0975  156.4183 C.3     1  UNL1        0.0739
      4 N         140.6725  139.8281  157.1321 N.3     1  UNL1       -0.2700
      5 C         139.9847  139.8351  158.4651 C.3     1  UNL1        0.0919
      6 O         140.2149  143.1922  160.4801 O.2     1  UNL1       -0.2733
      7 C         138.8673  142.5702  160.6973 C.2     1  UNL1        0.2425
      8 N         138.3598  141.5285  159.7448 N.am    1  UNL1       -0.3032
      9 H         137.4753  141.1203  159.8873 H       1  UNL1        0.1495
     10 C         138.0272  142.9899  161.8669 C.3     1  UNL1        0.1759
     11 N         138.4173  142.5800  163.2561 N.am    1  UNL1       -0.2931
     12 C         138.2469  141.1554  163.6934 C.2     1  UNL1        0.2462
     13 O         137.6864  140.1406  162.7416 O.2     1  UNL1       -0.2701
     14 H         138.7852  143.2461  163.8808 H       1  UNL1        0.1502
     15 C         138.6371  140.7455  165.0826 C.ar    1  UNL1        0.0533
     16 C         138.1194  139.4610  165.6588 C.ar    1  UNL1        0.0045
     17 C         138.5095  139.0511  167.0480 C.ar    1  UNL1        0.0001
     18 C         139.4174  139.9258  167.8609 C.ar    1  UNL1        0.0039
     19 C         139.9351  141.2102  167.2847 C.ar    1  UNL1        0.0716
     20 C         139.5449  141.6201  165.8955 C.ar    1  UNL1        0.0084
     21 C         140.8429  142.0848  168.0976 C.3     1  UNL1        0.4186
     22 F         141.7508  142.9594  168.9105 F       1  UNL1       -0.1659
     23 F         141.8420  142.0879  166.9787 F       1  UNL1       -0.1659
     24 F         139.8439  142.0818  169.2165 F       1  UNL1       -0.1659
     25 C         141.5635  138.7424  156.6055 C.3     1  UNL1        0.0897
     26 C         142.9566  138.5901  157.1403 C.3     1  UNL1        0.0897
     27 N         143.3071  139.1456  158.4889 N.3     1  UNL1       -0.2686
     28 C         143.0352  138.3409  159.7252 C.3     1  UNL1        0.0939
     29 C         143.3856  138.8963  161.0738 C.3     1  UNL1        0.1110
     30 N         144.0081  140.2565  161.1860 N.am    1  UNL1       -0.2732
     31 C         144.3586  140.8120  162.5346 C.2     1  UNL1        0.2514
     32 O         144.9810  142.1721  162.6468 O.2     1  UNL1       -0.2698
     33 C         144.2800  141.0612  159.9497 C.3     1  UNL1        0.1110
     34 C         143.9295  140.5057  158.6011 C.3     1  UNL1        0.0939
     35 C         144.0866  140.0073  163.7709 C.ar    1  UNL1        0.0832
     36 C         145.2078  139.2851  164.4574 C.ar    1  UNL1        0.0364
     37 C         144.9358  138.4804  165.6938 C.ar    1  UNL1        0.1404
     38 F         146.0570  137.7582  166.3803 F       1  UNL1       -0.2042
     39 C         143.5427  138.3979  166.2435 C.ar    1  UNL1        0.0319
     40 C         142.4214  139.1201  165.5570 C.ar    1  UNL1        0.0321
     41 C         142.6934  139.9248  164.3206 C.ar    1  UNL1        0.1446
     42 F         141.5722  140.6469  163.6341 F       1  UNL1       -0.2040
@<TRIPOS>BOND
     1     6     7    2
     2     7    10    1
     3    10    11    1
     4    11    12   am
     5    12    13    2
     6    12    15    1
     7    15    16   ar
     8    16    17   ar
     9    17    18   ar
    10    18    19   ar
    11    19    21    1
    12    21    22    1
    13    21    23    1
    14    21    24    1
    15    19    20   ar
    16     7     8   am
    17     1     8    1
    18     1     2    1
    19     2     3    1
    20     3     4    1
    21     4    25    1
    22    25    26    1
    23    26    27    1
    24    27    28    1
    25    28    29    1
    26    29    30    1
    27    30    31   am
    28    31    32    2
    29    31    35    1
    30    35    36   ar
    31    36    37   ar
    32    37    38    1
    33    37    39   ar
    34    39    40   ar
    35    40    41   ar
    36    41    42    1
    37    30    33    1
    38    33    34    1
    39     4     5    1
    40    20    15   ar
    41     5     1    1
    42    34    27    1
    43    41    35   ar
    44    11    14    1
    45     8     9    1
