@<TRIPOS>MOLECULE
*****
 25 25 0 0 0
SMALL
GASTEIGER

@<TRIPOS>ATOM
      1 C         141.2595  137.6834  164.0161 C.3     1  UNL1        0.1700
      2 O         141.4459  136.8839  162.7607 O.3     1  UNL1       -0.3793
      3 H         140.6437  136.3681  162.5838 H       1  UNL1        0.2106
      4 C         139.9697  137.5953  164.7769 C.3     1  UNL1        0.1056
      5 N         138.8906  138.6107  164.5438 N.3     1  UNL1       -0.2704
      6 C         138.2999  139.3570  165.7031 C.3     1  UNL1        0.0722
      7 C         137.7853  138.6055  166.8950 C.3     1  UNL1        0.0188
      8 C         138.4022  138.8800  163.1512 C.3     1  UNL1        0.0775
      9 C         137.8160  140.2172  162.8075 C.3     1  UNL1        0.0816
     10 C         138.6112  141.1992  161.9991 C.3     1  UNL1        0.2570
     11 S         138.6107  142.6521  162.3720 S.O     1  UNL1        0.0304
     12 O         137.9608  143.6580  161.4689 O.co2   1  UNL1       -0.6813
     13 C         139.2602  143.0991  163.6481 C.3     1  UNL1        0.2555
     14 C         138.6723  144.9068  165.4191 C.3     1  UNL1        0.0055
     15 C         138.4154  143.5668  164.7959 C.3     1  UNL1        0.0644
     16 C         142.3628  138.5711  164.5107 C.3     1  UNL1        0.2358
     17 O         142.6736  138.6352  165.9767 O.3     1  UNL1       -0.4728
     18 C         142.1663  139.7807  166.8016 C.ar    1  UNL1        0.1387
     19 C         141.5803  140.9870  166.1298 C.ar    1  UNL1        0.0376
     20 C         141.0729  142.1325  166.9546 C.ar    1  UNL1        0.0134
     21 C         141.1515  142.0717  168.4513 C.ar    1  UNL1        0.0686
     22 C         141.7375  140.8654  169.1231 C.ar    1  UNL1        0.0134
     23 C         142.2449  139.7199  168.2983 C.ar    1  UNL1        0.0376
     24 C         140.6441  143.2172  169.2761 C.1     1  UNL1        0.1004
     25 N         140.1367  144.3627  170.1010 N.1     1  UNL1       -0.1908
@<TRIPOS>UNITY_ATOM_ATTR
11 1
charge 1
12 1
charge -1
@<TRIPOS>BOND
     1    14    15    1
     2    15    13    1
     3    13    11    1
     4    11    12    2
     5    11    10    1
     6    10     9    1
     7     9     8    1
     8     8     5    1
     9     5     6    1
    10     6     7    1
    11     5     4    1
    12     4     1    1
    13     1     2    1
    14     1    16    1
    15    16    17    1
    16    17    18    1
    17    18    19   ar
    18    19    20   ar
    19    20    21   ar
    20    21    24    1
    21    24    25    3
    22    21    22   ar
    23    22    23   ar
    24    23    18   ar
    25     2     3    1
@<TRIPOS>MOLECULE
*****
 25 25 0 0 0
SMALL
GASTEIGER

@<TRIPOS>ATOM
      1 C         144.9289  141.8256  163.2517 C.3     1  UNL1        0.1700
      2 O         146.4281  141.8095  163.2063 O.3     1  UNL1       -0.3793
      3 H         146.7256  141.1224  162.5895 H       1  UNL1        0.2106
      4 C         144.1427  140.8626  162.4122 C.3     1  UNL1        0.1056
      5 N         143.9936  139.4354  162.8490 N.3     1  UNL1       -0.2704
      6 C         144.0172  138.3333  161.8318 C.3     1  UNL1        0.0722
      7 C         143.4975  138.5801  160.4464 C.3     1  UNL1        0.0188
      8 C         143.8208  139.1102  164.3032 C.3     1  UNL1        0.0775
      9 C         142.4441  138.9858  164.8854 C.3     1  UNL1        0.0816
     10 C         141.6668  137.7153  164.7081 C.3     1  UNL1        0.2570
     11 S         140.5318  137.6609  163.7288 S.O     1  UNL1        0.0304
     12 O         140.7739  137.1893  162.3257 O.co2   1  UNL1       -0.6813
     13 C         139.1548  138.0780  164.1528 C.3     1  UNL1        0.2555
     14 C         138.0270  138.9713  166.3162 C.3     1  UNL1        0.0055
     15 C         138.7089  137.8637  165.5688 C.3     1  UNL1        0.0644
     16 C         144.2158  142.8046  164.1365 C.3     1  UNL1        0.2358
     17 O         142.7726  142.5887  164.4837 O.3     1  UNL1       -0.4728
     18 C         142.3497  142.5170  165.9211 C.ar    1  UNL1        0.1387
     19 C         143.3801  142.3543  166.9989 C.ar    1  UNL1        0.0376
     20 C         142.9572  142.2826  168.4362 C.ar    1  UNL1        0.0134
     21 C         141.5038  142.3736  168.7958 C.ar    1  UNL1        0.0686
     22 C         140.4734  142.5363  167.7180 C.ar    1  UNL1        0.0134
     23 C         140.8963  142.6080  166.2807 C.ar    1  UNL1        0.0376
     24 C         141.0809  142.3019  170.2331 C.1     1  UNL1        0.1004
     25 N         140.6579  142.2302  171.6705 N.1     1  UNL1       -0.1908
@<TRIPOS>UNITY_ATOM_ATTR
11 1
charge 1
12 1
charge -1
@<TRIPOS>BOND
     1    14    15    1
     2    15    13    1
     3    13    11    1
     4    11    12    2
     5    11    10    1
     6    10     9    1
     7     9     8    1
     8     8     5    1
     9     5     6    1
    10     6     7    1
    11     5     4    1
    12     4     1    1
    13     1     2    1
    14     1    16    1
    15    16    17    1
    16    17    18    1
    17    18    19   ar
    18    19    20   ar
    19    20    21   ar
    20    21    24    1
    21    24    25    3
    22    21    22   ar
    23    22    23   ar
    24    23    18   ar
    25     2     3    1
@<TRIPOS>MOLECULE
*****
 25 25 0 0 0
SMALL
GASTEIGER

@<TRIPOS>ATOM
      1 C         137.8708  141.3834  162.4966 C.3     1  UNL1        0.1700
      2 O         136.5178  141.3232  163.1415 O.3     1  UNL1       -0.3793
      3 H         136.0874  142.1897  163.0713 H       1  UNL1        0.2106
      4 C         138.3501  142.6627  161.8771 C.3     1  UNL1        0.1056
      5 N         139.0952  143.6651  162.7077 N.3     1  UNL1       -0.2704
      6 C         138.3479  144.5648  163.6469 C.3     1  UNL1        0.0722
      7 C         138.5595  144.4459  165.1271 C.3     1  UNL1        0.0188
      8 C         140.5878  143.7679  162.5991 C.3     1  UNL1        0.0775
      9 C         141.2590  145.1032  162.7276 C.3     1  UNL1        0.0816
     10 C         142.3219  145.3117  163.7652 C.3     1  UNL1        0.2570
     11 S         143.6194  144.5652  163.6702 S.O     1  UNL1        0.0304
     12 O         144.4074  144.5901  162.3942 O.co2   1  UNL1       -0.6813
     13 C         144.1290  143.7936  164.8514 C.3     1  UNL1        0.2555
     14 C         143.3930  141.3918  164.1882 C.3     1  UNL1        0.0055
     15 C         144.4361  142.3316  164.7164 C.3     1  UNL1        0.0644
     16 C         138.7444  140.1644  162.4713 C.3     1  UNL1        0.2358
     17 O         138.5806  139.1024  163.5178 O.3     1  UNL1       -0.4728
     18 C         138.8496  139.4214  164.9586 C.ar    1  UNL1        0.1387
     19 C         139.9554  140.3668  165.3237 C.ar    1  UNL1        0.0376
     20 C         140.2244  140.6858  166.7645 C.ar    1  UNL1        0.0134
     21 C         139.3875  140.0594  167.8402 C.ar    1  UNL1        0.0686
     22 C         138.2816  139.1141  167.4751 C.ar    1  UNL1        0.0134
     23 C         138.0127  138.7950  166.0344 C.ar    1  UNL1        0.0376
     24 C         139.6564  140.3784  169.2810 C.1     1  UNL1        0.1004
     25 N         139.9254  140.6975  170.7218 N.1     1  UNL1       -0.1908
@<TRIPOS>UNITY_ATOM_ATTR
11 1
charge 1
12 1
charge -1
@<TRIPOS>BOND
     1    14    15    1
     2    15    13    1
     3    13    11    1
     4    11    12    2
     5    11    10    1
     6    10     9    1
     7     9     8    1
     8     8     5    1
     9     5     6    1
    10     6     7    1
    11     5     4    1
    12     4     1    1
    13     1     2    1
    14     1    16    1
    15    16    17    1
    16    17    18    1
    17    18    19   ar
    18    19    20   ar
    19    20    21   ar
    20    21    24    1
    21    24    25    3
    22    21    22   ar
    23    22    23   ar
    24    23    18   ar
    25     2     3    1
@<TRIPOS>MOLECULE
*****
 25 25 0 0 0
SMALL
GASTEIGER

@<TRIPOS>ATOM
      1 C         144.8693  141.8793  163.1238 C.3     1  UNL1        0.1700
      2 O         146.3678  141.8624  163.1885 O.3     1  UNL1       -0.3793
      3 H         146.7304  142.2917  162.3978 H       1  UNL1        0.2106
      4 C         144.1762  142.5027  161.9486 C.3     1  UNL1        0.1056
      5 N         143.0433  143.4610  162.1678 N.3     1  UNL1       -0.2704
      6 C         143.2847  144.7564  162.8844 C.3     1  UNL1        0.0722
      7 C         142.3208  145.2237  163.9344 C.3     1  UNL1        0.0188
      8 C         141.6689  143.1239  161.6703 C.3     1  UNL1        0.0775
      9 C         140.8714  142.0460  162.3427 C.3     1  UNL1        0.0816
     10 C         139.4273  141.8493  161.9879 C.3     1  UNL1        0.2570
     11 S         138.3616  142.1073  163.0114 S.O     1  UNL1        0.0304
     12 O         136.9592  141.6331  162.7699 O.co2   1  UNL1       -0.6813
     13 C         138.6983  142.8396  164.2764 C.3     1  UNL1        0.2555
     14 C         138.5573  145.0083  165.7002 C.3     1  UNL1        0.0055
     15 C         138.4670  144.3186  164.3711 C.3     1  UNL1        0.0644
     16 C         144.0638  141.2728  164.2344 C.3     1  UNL1        0.2358
     17 O         143.8303  142.0442  165.4994 O.3     1  UNL1       -0.4728
     18 C         142.7347  141.6326  166.4375 C.ar    1  UNL1        0.1387
     19 C         141.5242  142.5025  166.6046 C.ar    1  UNL1        0.0376
     20 C         140.4285  142.0908  167.5427 C.ar    1  UNL1        0.0134
     21 C         140.5434  140.8094  168.3138 C.ar    1  UNL1        0.0686
     22 C         141.7539  139.9395  168.1468 C.ar    1  UNL1        0.0134
     23 C         142.8496  140.3511  167.2086 C.ar    1  UNL1        0.0376
     24 C         139.4477  140.3978  169.2520 C.1     1  UNL1        0.1004
     25 N         138.3521  139.9861  170.1901 N.1     1  UNL1       -0.1908
@<TRIPOS>UNITY_ATOM_ATTR
11 1
charge 1
12 1
charge -1
@<TRIPOS>BOND
     1    14    15    1
     2    15    13    1
     3    13    11    1
     4    11    12    2
     5    11    10    1
     6    10     9    1
     7     9     8    1
     8     8     5    1
     9     5     6    1
    10     6     7    1
    11     5     4    1
    12     4     1    1
    13     1     2    1
    14     1    16    1
    15    16    17    1
    16    17    18    1
    17    18    19   ar
    18    19    20   ar
    19    20    21   ar
    20    21    24    1
    21    24    25    3
    22    21    22   ar
    23    22    23   ar
    24    23    18   ar
    25     2     3    1
@<TRIPOS>MOLECULE
*****
 25 25 0 0 0
SMALL
GASTEIGER

@<TRIPOS>ATOM
      1 C         140.8045  137.6212  163.9329 C.3     1  UNL1        0.1700
      2 O         141.1419  136.9589  162.6300 O.3     1  UNL1       -0.3793
      3 H         140.3537  136.9365  162.0651 H       1  UNL1        0.2106
      4 C         139.4129  138.1233  164.1808 C.3     1  UNL1        0.1056
      5 N         139.1948  139.3396  165.0312 N.3     1  UNL1       -0.2704
      6 C         138.5971  139.2004  166.3998 C.3     1  UNL1        0.0722
      7 C         137.7410  138.0129  166.7272 C.3     1  UNL1        0.0188
      8 C         139.5745  140.6950  164.5128 C.3     1  UNL1        0.0775
      9 C         139.2372  141.9228  165.3059 C.3     1  UNL1        0.0816
     10 C         138.6671  143.1273  164.6174 C.3     1  UNL1        0.2570
     11 S         138.6749  143.2088  163.1196 S.O     1  UNL1        0.0304
     12 O         137.5004  142.7040  162.3349 O.co2   1  UNL1       -0.6813
     13 C         139.8571  143.7951  162.4065 C.3     1  UNL1        0.2555
     14 C         141.6294  145.1036  163.7838 C.3     1  UNL1        0.0055
     15 C         141.1926  143.8489  163.0873 C.3     1  UNL1        0.0644
     16 C         141.8586  137.7814  164.9879 C.3     1  UNL1        0.2358
     17 O         142.7657  138.9758  164.9665 O.3     1  UNL1       -0.4728
     18 C         142.8107  139.9046  166.1435 C.ar    1  UNL1        0.1387
     19 C         142.6385  139.3644  167.5322 C.ar    1  UNL1        0.0376
     20 C         142.6835  140.2932  168.7092 C.ar    1  UNL1        0.0134
     21 C         142.9007  141.7622  168.4975 C.ar    1  UNL1        0.0686
     22 C         143.0730  142.3024  167.1089 C.ar    1  UNL1        0.0134
     23 C         143.0280  141.3736  165.9319 C.ar    1  UNL1        0.0376
     24 C         142.9457  142.6910  169.6745 C.1     1  UNL1        0.1004
     25 N         142.9907  143.6197  170.8515 N.1     1  UNL1       -0.1908
@<TRIPOS>UNITY_ATOM_ATTR
11 1
charge 1
12 1
charge -1
@<TRIPOS>BOND
     1    14    15    1
     2    15    13    1
     3    13    11    1
     4    11    12    2
     5    11    10    1
     6    10     9    1
     7     9     8    1
     8     8     5    1
     9     5     6    1
    10     6     7    1
    11     5     4    1
    12     4     1    1
    13     1     2    1
    14     1    16    1
    15    16    17    1
    16    17    18    1
    17    18    19   ar
    18    19    20   ar
    19    20    21   ar
    20    21    24    1
    21    24    25    3
    22    21    22   ar
    23    22    23   ar
    24    23    18   ar
    25     2     3    1
@<TRIPOS>MOLECULE
*****
 25 25 0 0 0
SMALL
GASTEIGER

@<TRIPOS>ATOM
      1 C         138.0955  141.2362  162.7785 C.3     1  UNL1        0.1700
      2 O         136.6025  141.2720  162.9184 O.3     1  UNL1       -0.3793
      3 H         136.1929  140.9895  162.0857 H       1  UNL1        0.2106
      4 C         138.7173  140.8060  161.4829 C.3     1  UNL1        0.1056
      5 N         139.4813  139.5172  161.4092 N.3     1  UNL1       -0.2704
      6 C         138.7940  138.2194  161.7143 C.3     1  UNL1        0.0722
      7 C         138.8845  137.6281  163.0898 C.3     1  UNL1        0.0188
      8 C         140.9327  139.5264  161.0303 C.3     1  UNL1        0.0775
      9 C         141.6925  138.2362  160.9406 C.3     1  UNL1        0.0816
     10 C         142.7417  137.9111  161.9621 C.3     1  UNL1        0.2570
     11 S         143.0535  138.8903  163.0548 S.O     1  UNL1        0.0304
     12 O         143.8816  140.1055  162.7592 O.co2   1  UNL1       -0.6813
     13 C         142.5371  138.6543  164.4432 C.3     1  UNL1        0.2555
     14 C         142.8841  139.0835  166.9819 C.3     1  UNL1        0.0055
     15 C         143.4528  138.8114  165.6208 C.3     1  UNL1        0.0644
     16 C         138.9668  141.6304  163.9341 C.3     1  UNL1        0.2358
     17 O         139.5154  140.5792  164.8526 O.3     1  UNL1       -0.4728
     18 C         139.7392  140.8925  166.3024 C.ar    1  UNL1        0.1387
     19 C         140.3336  142.2105  166.7018 C.ar    1  UNL1        0.0376
     20 C         140.5574  142.5238  168.1515 C.ar    1  UNL1        0.0134
     21 C         140.1867  141.5191  169.2019 C.ar    1  UNL1        0.0686
     22 C         139.5924  140.2011  168.8025 C.ar    1  UNL1        0.0134
     23 C         139.3686  139.8878  167.3527 C.ar    1  UNL1        0.0376
     24 C         140.4105  141.8325  170.6516 C.1     1  UNL1        0.1004
     25 N         140.6343  142.1458  172.1014 N.1     1  UNL1       -0.1908
@<TRIPOS>UNITY_ATOM_ATTR
11 1
charge 1
12 1
charge -1
@<TRIPOS>BOND
     1    14    15    1
     2    15    13    1
     3    13    11    1
     4    11    12    2
     5    11    10    1
     6    10     9    1
     7     9     8    1
     8     8     5    1
     9     5     6    1
    10     6     7    1
    11     5     4    1
    12     4     1    1
    13     1     2    1
    14     1    16    1
    15    16    17    1
    16    17    18    1
    17    18    19   ar
    18    19    20   ar
    19    20    21   ar
    20    21    24    1
    21    24    25    3
    22    21    22   ar
    23    22    23   ar
    24    23    18   ar
    25     2     3    1
@<TRIPOS>MOLECULE
*****
 25 25 0 0 0
SMALL
GASTEIGER

@<TRIPOS>ATOM
      1 C         144.9260  141.9179  162.8290 C.3     1  UNL1        0.1700
      2 O         146.3892  141.8226  163.1452 O.3     1  UNL1       -0.3793
      3 H         146.8878  142.3987  162.5449 H       1  UNL1        0.2106
      4 C         144.4547  142.8130  161.7215 C.3     1  UNL1        0.1056
      5 N         143.5517  143.9714  162.0262 N.3     1  UNL1       -0.2704
      6 C         143.9232  144.9495  163.1010 C.3     1  UNL1        0.0722
      7 C         142.8717  145.4757  164.0323 C.3     1  UNL1        0.0188
      8 C         142.2771  144.1516  161.2560 C.3     1  UNL1        0.0775
      9 C         141.1604  143.1623  161.4118 C.3     1  UNL1        0.0816
     10 C         139.7350  143.6270  161.3666 C.3     1  UNL1        0.2570
     11 S         139.2766  144.7300  162.2739 S.O     1  UNL1        0.0304
     12 O         139.9466  146.0711  162.2220 O.co2   1  UNL1       -0.6813
     13 C         138.1482  144.4920  163.2330 C.3     1  UNL1        0.2555
     14 C         139.6505  143.8982  165.2679 C.3     1  UNL1        0.0055
     15 C         138.4024  144.5167  164.7111 C.3     1  UNL1        0.0644
     16 C         143.9340  141.1180  163.6204 C.3     1  UNL1        0.2358
     17 O         142.9275  141.8163  164.4860 O.3     1  UNL1       -0.4728
     18 C         141.7633  141.0544  165.0465 C.ar    1  UNL1        0.1387
     19 C         141.6459  140.8465  166.5273 C.ar    1  UNL1        0.0376
     20 C         140.4817  140.0846  167.0878 C.ar    1  UNL1        0.0134
     21 C         139.4348  139.5306  166.1674 C.ar    1  UNL1        0.0686
     22 C         139.5522  139.7385  164.6866 C.ar    1  UNL1        0.0134
     23 C         140.7164  140.5004  164.1261 C.ar    1  UNL1        0.0376
     24 C         138.2706  138.7687  166.7279 C.1     1  UNL1        0.1004
     25 N         137.1064  138.0068  167.2883 N.1     1  UNL1       -0.1908
@<TRIPOS>UNITY_ATOM_ATTR
11 1
charge 1
12 1
charge -1
@<TRIPOS>BOND
     1    14    15    1
     2    15    13    1
     3    13    11    1
     4    11    12    2
     5    11    10    1
     6    10     9    1
     7     9     8    1
     8     8     5    1
     9     5     6    1
    10     6     7    1
    11     5     4    1
    12     4     1    1
    13     1     2    1
    14     1    16    1
    15    16    17    1
    16    17    18    1
    17    18    19   ar
    18    19    20   ar
    19    20    21   ar
    20    21    24    1
    21    24    25    3
    22    21    22   ar
    23    22    23   ar
    24    23    18   ar
    25     2     3    1
@<TRIPOS>MOLECULE
*****
 25 25 0 0 0
SMALL
GASTEIGER

@<TRIPOS>ATOM
      1 C         140.9080  138.3346  163.1954 C.3     1  UNL1        0.1700
      2 O         141.0950  136.8652  162.9589 O.3     1  UNL1       -0.3793
      3 H         141.7845  136.7305  162.2901 H       1  UNL1        0.2106
      4 C         141.7368  139.3279  162.4361 C.3     1  UNL1        0.1056
      5 N         143.1843  139.5167  162.7814 N.3     1  UNL1       -0.2704
      6 C         143.7074  139.0436  164.1051 C.3     1  UNL1        0.0722
      7 C         143.5018  139.8781  165.3345 C.3     1  UNL1        0.0188
      8 C         144.1086  140.1786  161.8028 C.3     1  UNL1        0.0775
      9 C         144.9597  141.3342  162.2388 C.3     1  UNL1        0.0816
     10 C         144.8072  142.6705  161.5747 C.3     1  UNL1        0.2570
     11 S         143.6552  143.5606  161.9361 S.O     1  UNL1        0.0304
     12 O         142.3982  143.5297  161.1181 O.co2   1  UNL1       -0.6813
     13 C         143.7600  144.4814  163.1155 C.3     1  UNL1        0.2555
     14 C         144.4999  143.5312  165.4177 C.3     1  UNL1        0.0055
     15 C         143.4136  143.9849  164.4879 C.3     1  UNL1        0.0644
     16 C         139.8923  138.8107  164.1911 C.3     1  UNL1        0.2358
     17 O         139.8419  140.2593  164.5769 O.3     1  UNL1       -0.4728
     18 C         139.9493  140.6555  166.0196 C.ar    1  UNL1        0.1387
     19 C         140.5726  141.9678  166.3926 C.ar    1  UNL1        0.0376
     20 C         140.6800  142.3640  167.8354 C.ar    1  UNL1        0.0134
     21 C         140.1642  141.4478  168.9051 C.ar    1  UNL1        0.0686
     22 C         139.5409  140.1354  168.5321 C.ar    1  UNL1        0.0134
     23 C         139.4335  139.7393  167.0894 C.ar    1  UNL1        0.0376
     24 C         140.2716  141.8439  170.3479 C.1     1  UNL1        0.1004
     25 N         140.3790  142.2400  171.7906 N.1     1  UNL1       -0.1908
@<TRIPOS>UNITY_ATOM_ATTR
11 1
charge 1
12 1
charge -1
@<TRIPOS>BOND
     1    14    15    1
     2    15    13    1
     3    13    11    1
     4    11    12    2
     5    11    10    1
     6    10     9    1
     7     9     8    1
     8     8     5    1
     9     5     6    1
    10     6     7    1
    11     5     4    1
    12     4     1    1
    13     1     2    1
    14     1    16    1
    15    16    17    1
    16    17    18    1
    17    18    19   ar
    18    19    20   ar
    19    20    21   ar
    20    21    24    1
    21    24    25    3
    22    21    22   ar
    23    22    23   ar
    24    23    18   ar
    25     2     3    1
@<TRIPOS>MOLECULE
*****
 25 25 0 0 0
SMALL
GASTEIGER

@<TRIPOS>ATOM
      1 C         137.7896  142.3543  162.6719 C.3     1  UNL1        0.1700
      2 O         137.5967  143.7150  162.0710 O.3     1  UNL1       -0.3793
      3 H         137.4473  143.6287  161.1164 H       1  UNL1        0.2106
      4 C         137.7330  141.1346  161.8005 C.3     1  UNL1        0.1056
      5 N         138.9989  140.5432  161.2548 N.3     1  UNL1       -0.2704
      6 C         140.2613  141.3533  161.2441 C.3     1  UNL1        0.0722
      7 C         141.3403  141.0739  162.2480 C.3     1  UNL1        0.0188
      8 C         139.0024  139.1418  160.7200 C.3     1  UNL1        0.0775
      9 C         138.6088  137.9990  161.6083 C.3     1  UNL1        0.0816
     10 C         139.0773  137.9605  163.0327 C.3     1  UNL1        0.2570
     11 S         140.4987  137.5969  163.3451 S.O     1  UNL1        0.0304
     12 O         141.4210  137.1628  162.2448 O.co2   1  UNL1       -0.6813
     13 C         140.9977  137.6676  164.7579 C.3     1  UNL1        0.2555
     14 C         142.5967  139.0999  166.2214 C.3     1  UNL1        0.0055
     15 C         142.3707  138.2002  165.0425 C.3     1  UNL1        0.0644
     16 C         138.0392  142.2131  164.1442 C.3     1  UNL1        0.2358
     17 O         138.8479  141.0602  164.6607 O.3     1  UNL1       -0.4728
     18 C         139.3974  141.0949  166.0560 C.ar    1  UNL1        0.1387
     19 C         140.2423  142.2517  166.5008 C.ar    1  UNL1        0.0376
     20 C         140.7918  142.2864  167.8961 C.ar    1  UNL1        0.0134
     21 C         140.4964  141.1643  168.8466 C.ar    1  UNL1        0.0686
     22 C         139.6515  140.0075  168.4018 C.ar    1  UNL1        0.0134
     23 C         139.1020  139.9728  167.0065 C.ar    1  UNL1        0.0376
     24 C         141.0459  141.1990  170.2419 C.1     1  UNL1        0.1004
     25 N         141.5954  141.2337  171.6372 N.1     1  UNL1       -0.1908
@<TRIPOS>UNITY_ATOM_ATTR
11 1
charge 1
12 1
charge -1
@<TRIPOS>BOND
     1    14    15    1
     2    15    13    1
     3    13    11    1
     4    11    12    2
     5    11    10    1
     6    10     9    1
     7     9     8    1
     8     8     5    1
     9     5     6    1
    10     6     7    1
    11     5     4    1
    12     4     1    1
    13     1     2    1
    14     1    16    1
    15    16    17    1
    16    17    18    1
    17    18    19   ar
    18    19    20   ar
    19    20    21   ar
    20    21    24    1
    21    24    25    3
    22    21    22   ar
    23    22    23   ar
    24    23    18   ar
    25     2     3    1
