@<TRIPOS>MOLECULE
*****
 34 38 0 0 0
SMALL
GASTEIGER

@<TRIPOS>ATOM
      1 N         142.7183  143.5541  161.2564 N.3     1  UNL1       -0.2710
      2 C         142.4884  144.4403  162.4446 C.3     1  UNL1        0.0735
      3 C         141.1214  144.9967  162.7120 C.3     1  UNL1        0.0331
      4 C         139.9841  144.6668  161.7913 C.3     1  UNL1        0.0570
      5 C         140.2139  143.7805  160.6031 C.3     1  UNL1        0.0331
      6 C         141.5810  143.2242  160.3357 C.3     1  UNL1        0.0735
      7 N         138.6170  145.2231  162.0588 N.3     1  UNL1       -0.2934
      8 H         138.1184  145.2195  161.1689 H       1  UNL1        0.1236
      9 C         137.7197  144.5587  163.0606 C.3     1  UNL1        0.1152
     10 C         137.8822  143.0980  163.3604 C.ar    1  UNL1        0.0782
     11 C         138.4534  142.6616  164.6769 C.ar    1  UNL1        0.0562
     12 C         138.6158  141.2009  164.9767 C.ar    1  UNL1        0.1752
     13 C         138.2071  140.1766  163.9600 C.ar    1  UNL1        0.1914
     14 C         137.6359  140.6130  162.6434 C.ar    1  UNL1        0.1384
     15 N         137.4734  142.0738  162.3437 N.ar    1  UNL1       -0.2434
     16 O         138.3695  138.7159  164.2598 O.3     1  UNL1       -0.4668
     17 C         138.9407  138.2795  165.5763 C.3     1  UNL1        0.2527
     18 C         139.3495  139.3037  166.5931 C.3     1  UNL1        0.2526
     19 O         139.1870  140.7645  166.2933 O.3     1  UNL1       -0.4683
     20 C         144.0854  142.9978  160.9890 C.3     1  UNL1        0.0970
     21 C         144.2758  141.5180  160.8336 C.3     1  UNL1        0.1278
     22 C         140.9234  138.5162  160.8148 C.ar    1  UNL1        0.3214
     23 N         140.7244  137.6068  161.9910 N.ar    1  UNL1       -0.1926
     24 C         141.6428  137.6981  163.1735 C.ar    1  UNL1        0.1066
     25 C         142.7602  138.6987  163.1797 C.ar    1  UNL1        0.0538
     26 C         143.6786  138.7900  164.3622 C.ar    1  UNL1        0.0094
     27 C         144.7960  139.7905  164.3685 C.ar    1  UNL1        0.0609
     28 C         144.9951  140.7000  163.1923 C.ar    1  UNL1        0.2621
     29 O         146.1126  141.7006  163.1986 O.2     1  UNL1       -0.2669
     30 N         144.0767  140.6087  162.0098 N.ar    1  UNL1       -0.2790
     31 C         142.9592  139.6080  162.0036 C.ar    1  UNL1        0.1522
     32 N         142.0408  139.5168  160.8211 N.ar    1  UNL1       -0.1767
     33 C         139.0026  139.5108  159.3757 C.3     1  UNL1        0.2559
     34 O         140.0050  138.4249  159.6324 O.3     1  UNL1       -0.4426
@<TRIPOS>BOND
     1    33    34    1
     2    34    22    1
     3    22    23   ar
     4    23    24   ar
     5    24    25   ar
     6    25    26   ar
     7    26    27   ar
     8    27    28   ar
     9    28    29    2
    10    28    30   ar
    11    30    21    1
    12    21    20    1
    13    20     1    1
    14     1     2    1
    15     2     3    1
    16     3     4    1
    17     4     7    1
    18     7     9    1
    19     9    10    1
    20    10    11   ar
    21    11    12   ar
    22    12    13   ar
    23    13    14   ar
    24    14    15   ar
    25    13    16    1
    26    16    17    1
    27    17    18    1
    28    18    19    1
    29     4     5    1
    30     5     6    1
    31    30    31   ar
    32    31    32   ar
    33    32    22   ar
    34    31    25   ar
    35     6     1    1
    36    15    10   ar
    37    19    12    1
    38     7     8    1
@<TRIPOS>MOLECULE
*****
 34 38 0 0 0
SMALL
GASTEIGER

@<TRIPOS>ATOM
      1 N         142.9151  144.2543  162.4731 N.3     1  UNL1       -0.2710
      2 C         142.2513  144.7757  163.7130 C.3     1  UNL1        0.0735
      3 C         140.7844  145.0891  163.7031 C.3     1  UNL1        0.0331
      4 C         139.9815  144.8810  162.4534 C.3     1  UNL1        0.0570
      5 C         140.6454  144.3595  161.2135 C.3     1  UNL1        0.0331
      6 C         142.1122  144.0461  161.2234 C.3     1  UNL1        0.0735
      7 N         138.5146  145.1944  162.4435 N.3     1  UNL1       -0.2934
      8 H         138.2328  145.2539  161.4650 H       1  UNL1        0.1236
      9 C         137.5454  144.2690  163.1177 C.3     1  UNL1        0.1152
     10 C         137.7606  142.7857  163.0598 C.ar    1  UNL1        0.0782
     11 C         137.9767  142.0093  164.3250 C.ar    1  UNL1        0.0562
     12 C         138.1919  140.5260  164.2672 C.ar    1  UNL1        0.1752
     13 C         138.1911  139.8190  162.9442 C.ar    1  UNL1        0.1914
     14 C         137.9751  140.5954  161.6790 C.ar    1  UNL1        0.1384
     15 N         137.7598  142.0788  161.7369 N.ar    1  UNL1       -0.2434
     16 O         138.4064  138.3357  162.8863 O.3     1  UNL1       -0.4668
     17 C         138.6224  137.5593  164.1515 C.3     1  UNL1        0.2527
     18 C         138.6233  138.2662  165.4744 C.3     1  UNL1        0.2526
     19 O         138.4080  139.7496  165.5323 O.3     1  UNL1       -0.4683
     20 C         144.3821  143.9409  162.4830 C.3     1  UNL1        0.0970
     21 C         144.8573  142.5898  162.9288 C.3     1  UNL1        0.1278
     22 C         143.2143  141.8947  167.0600 C.ar    1  UNL1        0.3214
     23 N         142.2251  140.7926  167.2981 N.ar    1  UNL1       -0.1926
     24 C         141.7835  139.9222  166.1591 C.ar    1  UNL1        0.1066
     25 C         142.3312  140.1538  164.7820 C.ar    1  UNL1        0.0538
     26 C         141.8896  139.2834  163.6430 C.ar    1  UNL1        0.0094
     27 C         142.4373  139.5151  162.2659 C.ar    1  UNL1        0.0609
     28 C         143.4266  140.6172  162.0278 C.ar    1  UNL1        0.2621
     29 O         143.9742  140.8489  160.6508 O.2     1  UNL1       -0.2669
     30 N         143.8681  141.4877  163.1668 N.ar    1  UNL1       -0.2790
     31 C         143.3204  141.2560  164.5440 C.ar    1  UNL1        0.1522
     32 N         143.7620  142.1264  165.6830 N.ar    1  UNL1       -0.1767
     33 C         143.5502  142.2657  169.6094 C.3     1  UNL1        0.2559
     34 O         143.6559  142.7652  168.1990 O.3     1  UNL1       -0.4426
@<TRIPOS>BOND
     1    33    34    1
     2    34    22    1
     3    22    23   ar
     4    23    24   ar
     5    24    25   ar
     6    25    26   ar
     7    26    27   ar
     8    27    28   ar
     9    28    29    2
    10    28    30   ar
    11    30    21    1
    12    21    20    1
    13    20     1    1
    14     1     2    1
    15     2     3    1
    16     3     4    1
    17     4     7    1
    18     7     9    1
    19     9    10    1
    20    10    11   ar
    21    11    12   ar
    22    12    13   ar
    23    13    14   ar
    24    14    15   ar
    25    13    16    1
    26    16    17    1
    27    17    18    1
    28    18    19    1
    29     4     5    1
    30     5     6    1
    31    30    31   ar
    32    31    32   ar
    33    32    22   ar
    34    31    25   ar
    35     6     1    1
    36    15    10   ar
    37    19    12    1
    38     7     8    1
@<TRIPOS>MOLECULE
*****
 34 38 0 0 0
SMALL
GASTEIGER

@<TRIPOS>ATOM
      1 N         142.9710  144.2395  162.4670 N.3     1  UNL1       -0.2710
      2 C         142.2826  144.9667  163.5838 C.3     1  UNL1        0.0735
      3 C         140.8095  145.2382  163.5063 C.3     1  UNL1        0.0331
      4 C         140.0247  144.7826  162.3120 C.3     1  UNL1        0.0570
      5 C         140.7131  144.0554  161.1952 C.3     1  UNL1        0.0331
      6 C         142.1862  143.7839  161.2726 C.3     1  UNL1        0.0735
      7 N         138.5515  145.0541  162.2345 N.3     1  UNL1       -0.2934
      8 H         138.2804  144.9315  161.2588 H       1  UNL1        0.1236
      9 C         137.5948  144.2410  163.0552 C.3     1  UNL1        0.1152
     10 C         137.8089  142.7648  163.2130 C.ar    1  UNL1        0.0782
     11 C         138.1791  142.1995  164.5522 C.ar    1  UNL1        0.0562
     12 C         138.3932  140.7233  164.7100 C.ar    1  UNL1        0.1752
     13 C         138.2372  139.8123  163.5286 C.ar    1  UNL1        0.1914
     14 C         137.8670  140.3775  162.1894 C.ar    1  UNL1        0.1384
     15 N         137.6529  141.8538  162.0316 N.ar    1  UNL1       -0.2434
     16 O         138.4513  138.3361  163.6864 O.3     1  UNL1       -0.4668
     17 C         138.8215  137.7709  165.0256 C.3     1  UNL1        0.2527
     18 C         138.9775  138.6818  166.2070 C.3     1  UNL1        0.2526
     19 O         138.7634  140.1581  166.0492 O.3     1  UNL1       -0.4683
     20 C         144.4442  143.9680  162.5445 C.3     1  UNL1        0.0970
     21 C         144.9363  142.5975  162.9043 C.3     1  UNL1        0.1278
     22 C         143.2790  138.9460  160.8623 C.ar    1  UNL1        0.3214
     23 N         142.3888  138.0037  161.6170 N.ar    1  UNL1       -0.1926
     24 C         142.0511  138.2785  163.0524 C.ar    1  UNL1        0.1066
     25 C         142.6036  139.4957  163.7331 C.ar    1  UNL1        0.0538
     26 C         142.2658  139.7705  165.1685 C.ar    1  UNL1        0.0094
     27 C         142.8183  140.9876  165.8492 C.ar    1  UNL1        0.0609
     28 C         143.7085  141.9300  165.0945 C.ar    1  UNL1        0.2621
     29 O         144.2609  143.1471  165.7752 O.2     1  UNL1       -0.2669
     30 N         144.0462  141.6552  163.6591 N.ar    1  UNL1       -0.2790
     31 C         143.4937  140.4380  162.9784 C.ar    1  UNL1        0.1522
     32 N         143.8314  140.1631  161.5430 N.ar    1  UNL1       -0.1767
     33 C         142.6637  137.8943  158.5677 C.3     1  UNL1        0.2559
     34 O         143.6167  138.6712  159.4269 O.3     1  UNL1       -0.4426
@<TRIPOS>BOND
     1    33    34    1
     2    34    22    1
     3    22    23   ar
     4    23    24   ar
     5    24    25   ar
     6    25    26   ar
     7    26    27   ar
     8    27    28   ar
     9    28    29    2
    10    28    30   ar
    11    30    21    1
    12    21    20    1
    13    20     1    1
    14     1     2    1
    15     2     3    1
    16     3     4    1
    17     4     7    1
    18     7     9    1
    19     9    10    1
    20    10    11   ar
    21    11    12   ar
    22    12    13   ar
    23    13    14   ar
    24    14    15   ar
    25    13    16    1
    26    16    17    1
    27    17    18    1
    28    18    19    1
    29     4     5    1
    30     5     6    1
    31    30    31   ar
    32    31    32   ar
    33    32    22   ar
    34    31    25   ar
    35     6     1    1
    36    15    10   ar
    37    19    12    1
    38     7     8    1
@<TRIPOS>MOLECULE
*****
 34 38 0 0 0
SMALL
GASTEIGER

@<TRIPOS>ATOM
      1 N         143.0670  144.1045  162.5708 N.3     1  UNL1       -0.2710
      2 C         142.2393  143.5569  161.4460 C.3     1  UNL1        0.0735
      3 C         140.7848  143.9087  161.3448 C.3     1  UNL1        0.0331
      4 C         140.1578  144.8083  162.3684 C.3     1  UNL1        0.0570
      5 C         140.9855  145.3560  163.4931 C.3     1  UNL1        0.0331
      6 C         142.4401  145.0041  163.5943 C.3     1  UNL1        0.0735
      7 N         138.7032  145.1603  162.2672 N.3     1  UNL1       -0.2934
      8 H         138.4468  145.0729  161.2838 H       1  UNL1        0.1236
      9 C         137.6872  144.3827  163.0503 C.3     1  UNL1        0.1152
     10 C         137.9233  142.9327  163.3534 C.ar    1  UNL1        0.0782
     11 C         137.8164  141.9109  162.2606 C.ar    1  UNL1        0.0562
     12 C         138.0524  140.4610  162.5637 C.ar    1  UNL1        0.1752
     13 C         138.3955  140.0328  163.9599 C.ar    1  UNL1        0.1914
     14 C         138.5024  141.0547  165.0528 C.ar    1  UNL1        0.1384
     15 N         138.2663  142.5047  164.7495 N.ar    1  UNL1       -0.2434
     16 O         138.6316  138.5829  164.2630 O.3     1  UNL1       -0.4668
     17 C         138.5246  137.5611  163.1701 C.3     1  UNL1        0.2527
     18 C         138.1816  137.9892  161.7741 C.3     1  UNL1        0.2526
     19 O         137.9455  139.4392  161.4708 O.3     1  UNL1       -0.4683
     20 C         144.5217  143.7526  162.6719 C.3     1  UNL1        0.0970
     21 C         144.9460  142.5258  163.4236 C.3     1  UNL1        0.1278
     22 C         142.6929  138.6329  163.2873 C.ar    1  UNL1        0.3214
     23 N         141.9097  138.1774  164.4827 N.ar    1  UNL1       -0.1926
     24 C         141.8774  139.0196  165.7236 C.ar    1  UNL1        0.1066
     25 C         142.6284  140.3172  165.7690 C.ar    1  UNL1        0.0538
     26 C         142.5962  141.1594  167.0099 C.ar    1  UNL1        0.0094
     27 C         143.3472  142.4570  167.0553 C.ar    1  UNL1        0.0609
     28 C         144.1305  142.9126  165.8599 C.ar    1  UNL1        0.2621
     29 O         144.8815  144.2102  165.9053 O.2     1  UNL1       -0.2669
     30 N         144.1627  142.0704  164.6190 N.ar    1  UNL1       -0.2790
     31 C         143.4117  140.7727  164.5736 C.ar    1  UNL1        0.1522
     32 N         143.4439  139.9305  163.3328 N.ar    1  UNL1       -0.1767
     33 C         143.8029  138.0015  161.0248 C.3     1  UNL1        0.2559
     34 O         142.7251  137.7907  162.0465 O.3     1  UNL1       -0.4426
@<TRIPOS>BOND
     1    33    34    1
     2    34    22    1
     3    22    23   ar
     4    23    24   ar
     5    24    25   ar
     6    25    26   ar
     7    26    27   ar
     8    27    28   ar
     9    28    29    2
    10    28    30   ar
    11    30    21    1
    12    21    20    1
    13    20     1    1
    14     1     2    1
    15     2     3    1
    16     3     4    1
    17     4     7    1
    18     7     9    1
    19     9    10    1
    20    10    11   ar
    21    11    12   ar
    22    12    13   ar
    23    13    14   ar
    24    14    15   ar
    25    13    16    1
    26    16    17    1
    27    17    18    1
    28    18    19    1
    29     4     5    1
    30     5     6    1
    31    30    31   ar
    32    31    32   ar
    33    32    22   ar
    34    31    25   ar
    35     6     1    1
    36    15    10   ar
    37    19    12    1
    38     7     8    1
@<TRIPOS>MOLECULE
*****
 34 38 0 0 0
SMALL
GASTEIGER

@<TRIPOS>ATOM
      1 N         143.3120  140.4668  160.5557 N.3     1  UNL1       -0.2710
      2 C         141.8204  140.4754  160.7139 C.3     1  UNL1        0.0735
      3 C         141.1338  139.3401  161.4136 C.3     1  UNL1        0.0331
      4 C         141.9389  138.1962  161.9552 C.3     1  UNL1        0.0570
      5 C         143.4305  138.1877  161.7970 C.3     1  UNL1        0.0331
      6 C         144.1170  139.3230  161.0973 C.3     1  UNL1        0.0735
      7 N         141.2523  137.0609  162.6550 N.3     1  UNL1       -0.2934
      8 H         141.6842  136.2014  162.3154 H       1  UNL1        0.1236
      9 C         141.2619  136.9877  164.1532 C.3     1  UNL1        0.1152
     10 C         140.9828  138.2171  164.9659 C.ar    1  UNL1        0.0782
     11 C         142.0815  138.8535  165.7645 C.ar    1  UNL1        0.0562
     12 C         141.8025  140.0830  166.5773 C.ar    1  UNL1        0.1752
     13 C         140.4247  140.6760  166.5915 C.ar    1  UNL1        0.1914
     14 C         139.3260  140.0395  165.7928 C.ar    1  UNL1        0.1384
     15 N         139.6051  138.8100  164.9801 N.ar    1  UNL1       -0.2434
     16 O         140.1457  141.9054  167.4042 O.3     1  UNL1       -0.4668
     17 C         141.2444  142.5419  168.2028 C.3     1  UNL1        0.2527
     18 C         142.6221  141.9489  168.1887 C.3     1  UNL1        0.2526
     19 O         142.9012  140.7194  167.3759 O.3     1  UNL1       -0.4683
     20 C         143.9985  141.6022  159.8559 C.3     1  UNL1        0.0970
     21 C         144.5323  142.7587  160.6482 C.3     1  UNL1        0.1278
     22 C         140.7836  145.1501  161.3398 C.ar    1  UNL1        0.3214
     23 N         140.2949  145.3911  162.7372 N.ar    1  UNL1       -0.1926
     24 C         141.0557  144.8349  163.9042 C.ar    1  UNL1        0.1066
     25 C         142.3052  144.0377  163.6737 C.ar    1  UNL1        0.0538
     26 C         143.0660  143.4816  164.8407 C.ar    1  UNL1        0.0094
     27 C         144.3155  142.6844  164.6102 C.ar    1  UNL1        0.0609
     28 C         144.8043  142.4434  163.2127 C.ar    1  UNL1        0.2621
     29 O         146.0539  141.6463  162.9822 O.2     1  UNL1       -0.2669
     30 N         144.0436  142.9996  162.0457 N.ar    1  UNL1       -0.2790
     31 C         142.7939  143.7968  162.2762 C.ar    1  UNL1        0.1522
     32 N         142.0332  144.3530  161.1093 N.ar    1  UNL1       -0.1767
     33 C         140.3535  145.2587  158.7798 C.3     1  UNL1        0.2559
     34 O         140.0228  145.7063  160.1728 O.3     1  UNL1       -0.4426
@<TRIPOS>BOND
     1    33    34    1
     2    34    22    1
     3    22    23   ar
     4    23    24   ar
     5    24    25   ar
     6    25    26   ar
     7    26    27   ar
     8    27    28   ar
     9    28    29    2
    10    28    30   ar
    11    30    21    1
    12    21    20    1
    13    20     1    1
    14     1     2    1
    15     2     3    1
    16     3     4    1
    17     4     7    1
    18     7     9    1
    19     9    10    1
    20    10    11   ar
    21    11    12   ar
    22    12    13   ar
    23    13    14   ar
    24    14    15   ar
    25    13    16    1
    26    16    17    1
    27    17    18    1
    28    18    19    1
    29     4     5    1
    30     5     6    1
    31    30    31   ar
    32    31    32   ar
    33    32    22   ar
    34    31    25   ar
    35     6     1    1
    36    15    10   ar
    37    19    12    1
    38     7     8    1
@<TRIPOS>MOLECULE
*****
 34 38 0 0 0
SMALL
GASTEIGER

@<TRIPOS>ATOM
      1 N         138.0533  139.9693  162.3915 N.3     1  UNL1       -0.2710
      2 C         138.3066  140.7437  161.1321 C.3     1  UNL1        0.0735
      3 C         138.2110  142.2406  161.1400 C.3     1  UNL1        0.0331
      4 C         137.8621  142.9631  162.4073 C.3     1  UNL1        0.0570
      5 C         137.6088  142.1887  163.6668 C.3     1  UNL1        0.0331
      6 C         137.7044  140.6918  163.6589 C.3     1  UNL1        0.0735
      7 N         137.7665  144.4601  162.4153 N.3     1  UNL1       -0.2934
      8 H         137.0880  144.7080  163.1354 H       1  UNL1        0.1236
      9 C         138.9907  145.2884  162.6703 C.3     1  UNL1        0.1152
     10 C         140.3052  144.6196  162.9438 C.ar    1  UNL1        0.0782
     11 C         141.2629  144.3598  161.8189 C.ar    1  UNL1        0.0562
     12 C         142.5774  143.6910  162.0924 C.ar    1  UNL1        0.1752
     13 C         142.9342  143.2820  163.4908 C.ar    1  UNL1        0.1914
     14 C         141.9765  143.5418  164.6157 C.ar    1  UNL1        0.1384
     15 N         140.6620  144.2107  164.3421 N.ar    1  UNL1       -0.2434
     16 O         144.2487  142.6132  163.7643 O.3     1  UNL1       -0.4668
     17 C         145.2064  142.3534  162.6394 C.3     1  UNL1        0.2527
     18 C         144.8496  142.7624  161.2411 C.3     1  UNL1        0.2526
     19 O         143.5351  143.4312  160.9675 O.3     1  UNL1       -0.4683
     20 C         138.1489  138.4723  162.3836 C.3     1  UNL1        0.0970
     21 C         139.0050  137.7701  163.3955 C.3     1  UNL1        0.1278
     22 C         139.9410  139.6101  167.3941 C.ar    1  UNL1        0.3214
     23 N         141.3246  140.1118  167.6833 N.ar    1  UNL1       -0.1926
     24 C         142.3963  140.0001  166.6398 C.ar    1  UNL1        0.1066
     25 C         142.0844  139.3868  165.3070 C.ar    1  UNL1        0.0538
     26 C         143.1561  139.2751  164.2634 C.ar    1  UNL1        0.0094
     27 C         142.8441  138.6618  162.9306 C.ar    1  UNL1        0.0609
     28 C         141.4604  138.1601  162.6413 C.ar    1  UNL1        0.2621
     29 O         141.1484  137.5468  161.3085 O.2     1  UNL1       -0.2669
     30 N         140.3887  138.2718  163.6848 N.ar    1  UNL1       -0.2790
     31 C         140.7007  138.8851  165.0177 C.ar    1  UNL1        0.1522
     32 N         139.6290  138.9968  166.0612 N.ar    1  UNL1       -0.1767
     33 C         139.1595  140.4060  169.7405 C.3     1  UNL1        0.2559
     34 O         138.8693  139.7218  168.4376 O.3     1  UNL1       -0.4426
@<TRIPOS>BOND
     1    33    34    1
     2    34    22    1
     3    22    23   ar
     4    23    24   ar
     5    24    25   ar
     6    25    26   ar
     7    26    27   ar
     8    27    28   ar
     9    28    29    2
    10    28    30   ar
    11    30    21    1
    12    21    20    1
    13    20     1    1
    14     1     2    1
    15     2     3    1
    16     3     4    1
    17     4     7    1
    18     7     9    1
    19     9    10    1
    20    10    11   ar
    21    11    12   ar
    22    12    13   ar
    23    13    14   ar
    24    14    15   ar
    25    13    16    1
    26    16    17    1
    27    17    18    1
    28    18    19    1
    29     4     5    1
    30     5     6    1
    31    30    31   ar
    32    31    32   ar
    33    32    22   ar
    34    31    25   ar
    35     6     1    1
    36    15    10   ar
    37    19    12    1
    38     7     8    1
@<TRIPOS>MOLECULE
*****
 34 38 0 0 0
SMALL
GASTEIGER

@<TRIPOS>ATOM
      1 N         139.5096  137.9212  164.4992 N.3     1  UNL1       -0.2710
      2 C         140.9502  137.7440  164.8779 C.3     1  UNL1        0.0735
      3 C         141.9970  137.6246  163.8103 C.3     1  UNL1        0.0331
      4 C         141.6033  137.6823  162.3641 C.3     1  UNL1        0.0570
      5 C         140.1628  137.8594  161.9854 C.3     1  UNL1        0.0331
      6 C         139.1159  137.9789  163.0530 C.3     1  UNL1        0.0735
      7 N         142.6502  137.5628  161.2964 N.3     1  UNL1       -0.2934
      8 H         142.1985  137.8002  160.4132 H       1  UNL1        0.1236
      9 C         143.9016  138.3859  161.3777 C.3     1  UNL1        0.1152
     10 C         143.8111  139.8765  161.5175 C.ar    1  UNL1        0.0782
     11 C         144.0328  140.5192  162.8546 C.ar    1  UNL1        0.0562
     12 C         143.9422  142.0099  162.9945 C.ar    1  UNL1        0.1752
     13 C         143.6301  142.8580  161.7972 C.ar    1  UNL1        0.1914
     14 C         143.4084  142.2153  160.4601 C.ar    1  UNL1        0.1384
     15 N         143.4989  140.7245  160.3203 N.ar    1  UNL1       -0.2434
     16 O         143.5395  144.3487  161.9371 O.3     1  UNL1       -0.4668
     17 C         143.7612  144.9914  163.2742 C.3     1  UNL1        0.2527
     18 C         144.0734  144.1434  164.4714 C.3     1  UNL1        0.2526
     19 O         144.1639  142.6526  164.3316 O.3     1  UNL1       -0.4683
     20 C         138.4627  138.0406  165.5669 C.3     1  UNL1        0.0970
     21 C         138.0192  139.3953  166.0341 C.3     1  UNL1        0.1278
     22 C         138.5681  142.4459  162.7719 C.ar    1  UNL1        0.3214
     23 N         139.5720  143.5481  162.9371 N.ar    1  UNL1       -0.1926
     24 C         140.3929  143.6335  164.1896 C.ar    1  UNL1        0.1066
     25 C         140.2099  142.6166  165.2770 C.ar    1  UNL1        0.0538
     26 C         141.0308  142.7020  166.5295 C.ar    1  UNL1        0.0094
     27 C         140.8479  141.6851  167.6169 C.ar    1  UNL1        0.0609
     28 C         139.8439  140.5828  167.4518 C.ar    1  UNL1        0.2621
     29 O         139.6610  139.5659  168.5392 O.2     1  UNL1       -0.2669
     30 N         139.0230  140.4975  166.1993 N.ar    1  UNL1       -0.2790
     31 C         139.2061  141.5144  165.1118 C.ar    1  UNL1        0.1522
     32 N         138.3852  141.4291  163.8593 N.ar    1  UNL1       -0.1767
     33 C         138.4237  142.3010  160.1819 C.3     1  UNL1        0.2559
     34 O         137.7472  142.3606  161.5194 O.3     1  UNL1       -0.4426
@<TRIPOS>BOND
     1    33    34    1
     2    34    22    1
     3    22    23   ar
     4    23    24   ar
     5    24    25   ar
     6    25    26   ar
     7    26    27   ar
     8    27    28   ar
     9    28    29    2
    10    28    30   ar
    11    30    21    1
    12    21    20    1
    13    20     1    1
    14     1     2    1
    15     2     3    1
    16     3     4    1
    17     4     7    1
    18     7     9    1
    19     9    10    1
    20    10    11   ar
    21    11    12   ar
    22    12    13   ar
    23    13    14   ar
    24    14    15   ar
    25    13    16    1
    26    16    17    1
    27    17    18    1
    28    18    19    1
    29     4     5    1
    30     5     6    1
    31    30    31   ar
    32    31    32   ar
    33    32    22   ar
    34    31    25   ar
    35     6     1    1
    36    15    10   ar
    37    19    12    1
    38     7     8    1
@<TRIPOS>MOLECULE
*****
 34 38 0 0 0
SMALL
GASTEIGER

@<TRIPOS>ATOM
      1 N         142.5819  144.1033  160.7490 N.3     1  UNL1       -0.2710
      2 C         143.3579  143.0433  160.0251 C.3     1  UNL1        0.0735
      3 C         144.4548  142.3028  160.7311 C.3     1  UNL1        0.0331
      4 C         144.7757  142.6225  162.1610 C.3     1  UNL1        0.0570
      5 C         143.9997  143.6825  162.8850 C.3     1  UNL1        0.0331
      6 C         142.9028  144.4229  162.1790 C.3     1  UNL1        0.0735
      7 N         145.8727  141.8820  162.8672 N.3     1  UNL1       -0.2934
      8 H         146.4491  142.5831  163.3325 H       1  UNL1        0.1236
      9 C         145.5353  140.8455  163.8976 C.3     1  UNL1        0.1152
     10 C         144.2986  140.0105  163.7446 C.ar    1  UNL1        0.0782
     11 C         143.1729  140.1506  164.7260 C.ar    1  UNL1        0.0562
     12 C         141.9363  139.3156  164.5730 C.ar    1  UNL1        0.1752
     13 C         141.8252  138.3406  163.4385 C.ar    1  UNL1        0.1914
     14 C         142.9509  138.2005  162.4571 C.ar    1  UNL1        0.1384
     15 N         144.1876  139.0356  162.6101 N.ar    1  UNL1       -0.2434
     16 O         140.5886  137.5056  163.2855 O.3     1  UNL1       -0.4668
     17 C         139.4629  137.6457  164.2670 C.3     1  UNL1        0.2527
     18 C         139.5739  138.6206  165.4014 C.3     1  UNL1        0.2526
     19 O         140.8106  139.4557  165.5545 O.3     1  UNL1       -0.4683
     20 C         141.4850  144.8438  160.0429 C.3     1  UNL1        0.0970
     21 C         140.0895  144.2937  160.0408 C.3     1  UNL1        0.1278
     22 C         138.4483  140.1784  160.8287 C.ar    1  UNL1        0.3214
     23 N         137.7568  139.8826  162.1265 N.ar    1  UNL1       -0.1926
     24 C         137.6123  140.9585  163.1616 C.ar    1  UNL1        0.1066
     25 C         138.1594  142.3303  162.8990 C.ar    1  UNL1        0.0538
     26 C         138.0149  143.4062  163.9342 C.ar    1  UNL1        0.0094
     27 C         138.5619  144.7779  163.6715 C.ar    1  UNL1        0.0609
     28 C         139.2535  145.0738  162.3737 C.ar    1  UNL1        0.2621
     29 O         139.8005  146.4456  162.1111 O.2     1  UNL1       -0.2669
     30 N         139.3980  143.9979  161.3386 N.ar    1  UNL1       -0.2790
     31 C         138.8509  142.6261  161.6013 C.ar    1  UNL1        0.1522
     32 N         138.9953  141.5502  160.5661 N.ar    1  UNL1       -0.1767
     33 C         139.9433  138.5185  159.5023 C.3     1  UNL1        0.2559
     34 O         138.5928  139.1025  159.7936 O.3     1  UNL1       -0.4426
@<TRIPOS>BOND
     1    33    34    1
     2    34    22    1
     3    22    23   ar
     4    23    24   ar
     5    24    25   ar
     6    25    26   ar
     7    26    27   ar
     8    27    28   ar
     9    28    29    2
    10    28    30   ar
    11    30    21    1
    12    21    20    1
    13    20     1    1
    14     1     2    1
    15     2     3    1
    16     3     4    1
    17     4     7    1
    18     7     9    1
    19     9    10    1
    20    10    11   ar
    21    11    12   ar
    22    12    13   ar
    23    13    14   ar
    24    14    15   ar
    25    13    16    1
    26    16    17    1
    27    17    18    1
    28    18    19    1
    29     4     5    1
    30     5     6    1
    31    30    31   ar
    32    31    32   ar
    33    32    22   ar
    34    31    25   ar
    35     6     1    1
    36    15    10   ar
    37    19    12    1
    38     7     8    1
@<TRIPOS>MOLECULE
*****
 34 38 0 0 0
SMALL
GASTEIGER

@<TRIPOS>ATOM
      1 N         141.9139  138.1971  164.0176 N.3     1  UNL1       -0.2710
      2 C         142.2307  138.5393  162.5919 C.3     1  UNL1        0.0735
      3 C         143.4583  139.3377  162.2673 C.3     1  UNL1        0.0331
      4 C         144.3691  139.7939  163.3683 C.3     1  UNL1        0.0570
      5 C         144.0523  139.4517  164.7939 C.3     1  UNL1        0.0331
      6 C         142.8247  138.6533  165.1186 C.3     1  UNL1        0.0735
      7 N         145.5967  140.5924  163.0437 N.3     1  UNL1       -0.2934
      8 H         145.7402  140.5157  162.0367 H       1  UNL1        0.1236
      9 C         145.6514  142.0535  163.3787 C.3     1  UNL1        0.1152
     10 C         144.4317  142.9090  163.2048 C.ar    1  UNL1        0.0782
     11 C         143.9225  143.2182  161.8281 C.ar    1  UNL1        0.0562
     12 C         142.7028  144.0737  161.6542 C.ar    1  UNL1        0.1752
     13 C         141.9921  144.6201  162.8569 C.ar    1  UNL1        0.1914
     14 C         142.5013  144.3109  164.2336 C.ar    1  UNL1        0.1384
     15 N         143.7211  143.4554  164.4075 N.ar    1  UNL1       -0.2434
     16 O         140.7724  145.4756  162.6830 O.3     1  UNL1       -0.4668
     17 C         140.2632  145.7847  161.3063 C.3     1  UNL1        0.2527
     18 C         140.9738  145.2384  160.1036 C.3     1  UNL1        0.2526
     19 O         142.1936  144.3828  160.2775 O.3     1  UNL1       -0.4683
     20 C         140.6862  137.3986  164.3422 C.3     1  UNL1        0.0970
     21 C         139.4697  138.0832  164.8911 C.3     1  UNL1        0.1278
     22 C         140.3764  141.9317  167.0399 C.ar    1  UNL1        0.3214
     23 N         139.9254  143.2391  166.4592 N.ar    1  UNL1       -0.1926
     24 C         139.1722  143.2637  165.1623 C.ar    1  UNL1        0.1066
     25 C         138.8700  141.9810  164.4460 C.ar    1  UNL1        0.0538
     26 C         138.1168  142.0056  163.1490 C.ar    1  UNL1        0.0094
     27 C         137.8146  140.7228  162.4328 C.ar    1  UNL1        0.0609
     28 C         138.2656  139.4153  163.0135 C.ar    1  UNL1        0.2621
     29 O         137.9633  138.1325  162.2972 O.2     1  UNL1       -0.2669
     30 N         139.0187  139.3907  164.3104 N.ar    1  UNL1       -0.2790
     31 C         139.3209  140.6735  165.0267 C.ar    1  UNL1        0.1522
     32 N         140.0741  140.6489  166.3237 N.ar    1  UNL1       -0.1767
     33 C         142.5946  142.2278  168.3596 C.3     1  UNL1        0.2559
     34 O         141.1295  141.9070  168.3369 O.3     1  UNL1       -0.4426
@<TRIPOS>BOND
     1    33    34    1
     2    34    22    1
     3    22    23   ar
     4    23    24   ar
     5    24    25   ar
     6    25    26   ar
     7    26    27   ar
     8    27    28   ar
     9    28    29    2
    10    28    30   ar
    11    30    21    1
    12    21    20    1
    13    20     1    1
    14     1     2    1
    15     2     3    1
    16     3     4    1
    17     4     7    1
    18     7     9    1
    19     9    10    1
    20    10    11   ar
    21    11    12   ar
    22    12    13   ar
    23    13    14   ar
    24    14    15   ar
    25    13    16    1
    26    16    17    1
    27    17    18    1
    28    18    19    1
    29     4     5    1
    30     5     6    1
    31    30    31   ar
    32    31    32   ar
    33    32    22   ar
    34    31    25   ar
    35     6     1    1
    36    15    10   ar
    37    19    12    1
    38     7     8    1
