@<TRIPOS>MOLECULE
*****
 32 35 0 0 0
SMALL
GASTEIGER

@<TRIPOS>ATOM
      1 C         141.6528  140.8569  168.5981 C.3     1  UNL1        0.1311
      2 C         141.6950  141.5897  167.2900 C.3     1  UNL1        0.1020
      3 N         140.5761  141.4294  166.3040 N.3     1  UNL1       -0.2706
      4 C         139.4148  140.5362  166.6261 C.3     1  UNL1        0.0917
      5 C         139.3726  139.8034  167.9342 C.3     1  UNL1        0.1583
      6 O         140.4915  139.9637  168.9202 O.3     1  UNL1       -0.3534
      7 C         140.6184  142.1622  164.9958 C.3     1  UNL1        0.0610
      8 C         141.5005  141.6684  163.8877 C.3     1  UNL1        0.0375
      9 C         141.5429  142.4012  162.5796 C.3     1  UNL1        0.0950
     10 N         140.7031  143.6279  162.3796 N.pl3   1  UNL1       -0.2785
     11 C         139.8209  144.1218  163.4877 C.3     1  UNL1        0.0950
     12 C         139.7786  143.3889  164.7959 C.3     1  UNL1        0.0375
     13 C         140.7454  144.3607  161.0715 C.ar    1  UNL1        0.2163
     14 N         141.9663  144.5979  160.2329 N.ar    1  UNL1       -0.1804
     15 C         141.5498  145.3687  159.0154 C.ar    1  UNL1        0.2331
     16 N         142.4530  145.8209  157.9065 N.pl3   1  UNL1       -0.3262
     17 N         140.0714  145.6081  159.1016 N.ar    1  UNL1       -0.1354
     18 N         139.5744  144.9851  160.3723 N.ar    1  UNL1       -0.2450
     19 H         143.4150  145.6145  157.9400 H       1  UNL1        0.1452
     20 H         142.0837  146.3242  157.1451 H       1  UNL1        0.1452
     21 H         138.6430  144.9858  160.6914 H       1  UNL1        0.1919
     22 C         143.0162  139.9599  170.6196 C.3     1  UNL1        0.0025
     23 C         142.7717  141.0172  169.5841 C.3     1  UNL1        0.0286
     24 C         143.6462  142.2349  169.5347 C.3     1  UNL1        0.0025
     25 C         138.2959  140.3759  165.6401 C.3     1  UNL1        0.0448
     26 C         138.5643  139.7749  164.2922 C.ar    1  UNL1       -0.0207
     27 C         139.3913  138.5286  164.1780 C.ar    1  UNL1       -0.0034
     28 C         139.6597  137.9275  162.8302 C.ar    1  UNL1        0.0111
     29 C         139.1011  138.5727  161.5966 C.ar    1  UNL1        0.0577
     30 CL        139.3695  137.9716  160.2487 Cl      1  UNL1       -0.0822
     31 C         138.2742  139.8189  161.7108 C.ar    1  UNL1        0.0111
     32 C         138.0057  140.4200  163.0586 C.ar    1  UNL1       -0.0034
@<TRIPOS>BOND
     1    22    23    1
     2    23    24    1
     3     1    23    1
     4     1     2    1
     5     2     3    1
     6     3     7    1
     7     7     8    1
     8     8     9    1
     9     9    10    1
    10    10    13    1
    11    13    14   ar
    12    14    15   ar
    13    15    16    1
    14    15    17   ar
    15    17    18   ar
    16    10    11    1
    17    11    12    1
    18     3     4    1
    19     4    25    1
    20    25    26    1
    21    26    27   ar
    22    27    28   ar
    23    28    29   ar
    24    29    30    1
    25    29    31   ar
    26    31    32   ar
    27     4     5    1
    28     5     6    1
    29     6     1    1
    30    12     7    1
    31    32    26   ar
    32    18    13   ar
    33    16    19    1
    34    16    20    1
    35    18    21    1
@<TRIPOS>MOLECULE
*****
 32 35 0 0 0
SMALL
GASTEIGER

@<TRIPOS>ATOM
      1 C         142.9132  141.0453  168.6042 C.3     1  UNL1        0.1311
      2 C         142.8230  141.7438  167.2799 C.3     1  UNL1        0.1020
      3 N         142.8021  140.9450  166.0105 N.3     1  UNL1       -0.2706
      4 C         142.8715  139.4477  166.0653 C.3     1  UNL1        0.0917
      5 C         142.9618  138.7491  167.3896 C.3     1  UNL1        0.1583
      6 O         142.9826  139.5479  168.6591 O.3     1  UNL1       -0.3534
      7 C         142.7119  141.6437  164.6861 C.3     1  UNL1        0.0610
      8 C         143.9503  141.8655  163.8693 C.3     1  UNL1        0.0375
      9 C         143.8601  142.5641  162.5450 C.3     1  UNL1        0.0950
     10 N         142.5315  143.0409  162.0375 N.pl3   1  UNL1       -0.2785
     11 C         141.2931  142.8190  162.8543 C.3     1  UNL1        0.0950
     12 C         141.3833  142.1204  164.1786 C.3     1  UNL1        0.0375
     13 C         142.4413  143.7395  160.7132 C.ar    1  UNL1        0.2163
     14 N         142.9394  143.2098  159.4012 N.ar    1  UNL1       -0.1804
     15 C         142.6432  144.2333  158.3455 C.ar    1  UNL1        0.2331
     16 N         142.9706  144.1153  156.8864 N.pl3   1  UNL1       -0.3262
     17 N         141.9619  145.3957  159.0050 N.ar    1  UNL1       -0.1354
     18 N         141.8371  145.0904  160.4683 N.ar    1  UNL1       -0.2450
     19 H         143.4215  143.3087  156.5468 H       1  UNL1        0.1452
     20 H         142.7347  144.8445  156.2684 H       1  UNL1        0.1452
     21 H         141.4302  145.6743  161.1486 H       1  UNL1        0.1919
     22 C         141.8467  141.6640  170.8910 C.3     1  UNL1        0.0025
     23 C         142.9341  141.8441  169.8736 C.3     1  UNL1        0.0286
     24 C         144.0423  142.8229  170.1257 C.3     1  UNL1        0.0025
     25 C         142.8507  138.6489  164.7959 C.3     1  UNL1        0.0448
     26 C         141.5620  138.4542  164.0533 C.ar    1  UNL1       -0.0207
     27 C         141.4990  138.7191  162.5782 C.ar    1  UNL1       -0.0034
     28 C         140.2104  138.5245  161.8356 C.ar    1  UNL1        0.0111
     29 C         138.9847  138.0649  162.5681 C.ar    1  UNL1        0.0577
     30 CL        137.6960  137.8703  161.8254 Cl      1  UNL1       -0.0822
     31 C         139.0477  137.8000  164.0431 C.ar    1  UNL1        0.0111
     32 C         140.3364  137.9946  164.7858 C.ar    1  UNL1       -0.0034
@<TRIPOS>BOND
     1    22    23    1
     2    23    24    1
     3     1    23    1
     4     1     2    1
     5     2     3    1
     6     3     7    1
     7     7     8    1
     8     8     9    1
     9     9    10    1
    10    10    13    1
    11    13    14   ar
    12    14    15   ar
    13    15    16    1
    14    15    17   ar
    15    17    18   ar
    16    10    11    1
    17    11    12    1
    18     3     4    1
    19     4    25    1
    20    25    26    1
    21    26    27   ar
    22    27    28   ar
    23    28    29   ar
    24    29    30    1
    25    29    31   ar
    26    31    32   ar
    27     4     5    1
    28     5     6    1
    29     6     1    1
    30    12     7    1
    31    32    26   ar
    32    18    13   ar
    33    16    19    1
    34    16    20    1
    35    18    21    1
@<TRIPOS>MOLECULE
*****
 32 35 0 0 0
SMALL
GASTEIGER

@<TRIPOS>ATOM
      1 C         140.2546  141.8710  168.6329 C.3     1  UNL1        0.1311
      2 C         140.4122  142.5548  167.3072 C.3     1  UNL1        0.1020
      3 N         140.1127  141.8112  166.0394 N.3     1  UNL1       -0.2706
      4 C         139.6556  140.3838  166.0973 C.3     1  UNL1        0.0917
      5 C         139.4980  139.7000  167.4230 C.3     1  UNL1        0.1583
      6 O         139.7974  140.4436  168.6908 O.3     1  UNL1       -0.3534
      7 C         140.2704  142.4951  164.7137 C.3     1  UNL1        0.0610
      8 C         139.0658  143.0306  163.9981 C.3     1  UNL1        0.0375
      9 C         139.2234  143.7145  162.6724 C.3     1  UNL1        0.0950
     10 N         140.5857  143.8629  162.0623 N.pl3   1  UNL1       -0.2785
     11 C         141.7903  143.3274  162.7779 C.3     1  UNL1        0.0950
     12 C         141.6327  142.6435  164.1036 C.3     1  UNL1        0.0375
     13 C         140.7433  144.5468  160.7366 C.ar    1  UNL1        0.2163
     14 N         142.0047  144.6235  159.9286 N.ar    1  UNL1       -0.1804
     15 C         141.7082  145.3981  158.6788 C.ar    1  UNL1        0.2331
     16 N         142.6849  145.7151  157.5854 N.pl3   1  UNL1       -0.3262
     17 N         140.2635  145.8002  158.7144 N.ar    1  UNL1       -0.1354
     18 N         139.6672  145.2740  159.9862 N.ar    1  UNL1       -0.2450
     19 H         143.6171  145.4058  157.6531 H       1  UNL1        0.1452
     20 H         142.3938  146.2325  156.8000 H       1  UNL1        0.1452
     21 H         138.7334  145.3862  160.2773 H       1  UNL1        0.1919
     22 C         140.4594  144.1113  169.9326 C.3     1  UNL1        0.0025
     23 C         140.5540  142.6146  169.9007 C.3     1  UNL1        0.0286
     24 C         140.9481  141.8616  171.1367 C.3     1  UNL1        0.0025
     25 C         139.3562  139.6401  164.8295 C.3     1  UNL1        0.0448
     26 C         140.4791  139.1573  163.9601 C.ar    1  UNL1       -0.0207
     27 C         140.2291  138.8516  162.5130 C.ar    1  UNL1       -0.0034
     28 C         141.3520  138.3687  161.6436 C.ar    1  UNL1        0.0111
     29 C         142.7249  138.1916  162.2212 C.ar    1  UNL1        0.0577
     30 CL        143.8479  137.7087  161.3517 Cl      1  UNL1       -0.0822
     31 C         142.9750  138.4973  163.6683 C.ar    1  UNL1        0.0111
     32 C         141.8520  138.9802  164.5377 C.ar    1  UNL1       -0.0034
@<TRIPOS>BOND
     1    22    23    1
     2    23    24    1
     3     1    23    1
     4     1     2    1
     5     2     3    1
     6     3     7    1
     7     7     8    1
     8     8     9    1
     9     9    10    1
    10    10    13    1
    11    13    14   ar
    12    14    15   ar
    13    15    16    1
    14    15    17   ar
    15    17    18   ar
    16    10    11    1
    17    11    12    1
    18     3     4    1
    19     4    25    1
    20    25    26    1
    21    26    27   ar
    22    27    28   ar
    23    28    29   ar
    24    29    30    1
    25    29    31   ar
    26    31    32   ar
    27     4     5    1
    28     5     6    1
    29     6     1    1
    30    12     7    1
    31    32    26   ar
    32    18    13   ar
    33    16    19    1
    34    16    20    1
    35    18    21    1
@<TRIPOS>MOLECULE
*****
 32 35 0 0 0
SMALL
GASTEIGER

@<TRIPOS>ATOM
      1 C         142.1871  139.7418  167.6071 C.3     1  UNL1        0.1311
      2 C         141.8510  140.6588  166.4687 C.3     1  UNL1        0.1020
      3 N         142.6093  140.5615  165.1781 N.3     1  UNL1       -0.2706
      4 C         143.7038  139.5471  165.0261 C.3     1  UNL1        0.0917
      5 C         144.0399  138.6301  166.1645 C.3     1  UNL1        0.1583
      6 O         143.2815  138.7275  167.4551 O.3     1  UNL1       -0.3534
      7 C         142.2732  141.4785  164.0397 C.3     1  UNL1        0.0610
      8 C         143.1214  142.6869  163.7745 C.3     1  UNL1        0.0375
      9 C         142.7853  143.6040  162.6361 C.3     1  UNL1        0.0950
     10 N         141.6009  143.3126  161.7628 N.pl3   1  UNL1       -0.2785
     11 C         140.7528  142.1042  162.0279 C.3     1  UNL1        0.0950
     12 C         141.0889  141.1871  163.1664 C.3     1  UNL1        0.0375
     13 C         141.2649  144.2297  160.6243 C.ar    1  UNL1        0.2163
     14 N         142.2011  144.6633  159.5356 N.ar    1  UNL1       -0.1804
     15 C         141.4484  145.5757  158.6132 C.ar    1  UNL1        0.2331
     16 N         142.0003  146.2411  157.3873 N.pl3   1  UNL1       -0.3262
     17 N         140.0469  145.7060  159.1318 N.ar    1  UNL1       -0.1354
     18 N         139.9335  144.8741  160.3747 N.ar    1  UNL1       -0.2450
     19 H         142.9381  146.0932  157.1269 H       1  UNL1        0.1452
     20 H         141.4247  146.8257  156.8431 H       1  UNL1        0.1452
     21 H         139.1269  144.7693  160.9294 H       1  UNL1        0.1919
     22 C         142.1474  139.6761  170.2040 C.3     1  UNL1        0.0025
     23 C         141.4287  139.8392  168.8976 C.3     1  UNL1        0.0286
     24 C         139.9516  140.0997  168.8817 C.3     1  UNL1        0.0025
     25 C         144.4621  139.4497  163.7356 C.3     1  UNL1        0.0448
     26 C         143.7363  139.1362  162.4609 C.ar    1  UNL1       -0.0207
     27 C         142.6906  138.0609  162.4382 C.ar    1  UNL1       -0.0034
     28 C         141.9648  137.7474  161.1636 C.ar    1  UNL1        0.0111
     29 C         142.2844  138.5092  159.9116 C.ar    1  UNL1        0.0577
     30 CL        141.5585  138.1956  158.6369 Cl      1  UNL1       -0.0822
     31 C         143.3300  139.5844  159.9342 C.ar    1  UNL1        0.0111
     32 C         144.0559  139.8980  161.2089 C.ar    1  UNL1       -0.0034
@<TRIPOS>BOND
     1    22    23    1
     2    23    24    1
     3     1    23    1
     4     1     2    1
     5     2     3    1
     6     3     7    1
     7     7     8    1
     8     8     9    1
     9     9    10    1
    10    10    13    1
    11    13    14   ar
    12    14    15   ar
    13    15    16    1
    14    15    17   ar
    15    17    18   ar
    16    10    11    1
    17    11    12    1
    18     3     4    1
    19     4    25    1
    20    25    26    1
    21    26    27   ar
    22    27    28   ar
    23    28    29   ar
    24    29    30    1
    25    29    31   ar
    26    31    32   ar
    27     4     5    1
    28     5     6    1
    29     6     1    1
    30    12     7    1
    31    32    26   ar
    32    18    13   ar
    33    16    19    1
    34    16    20    1
    35    18    21    1
@<TRIPOS>MOLECULE
*****
 32 35 0 0 0
SMALL
GASTEIGER

@<TRIPOS>ATOM
      1 C         141.5931  139.4624  168.8533 C.3     1  UNL1        0.1311
      2 C         142.0083  139.3316  167.4178 C.3     1  UNL1        0.1020
      3 N         140.9923  139.4904  166.3258 N.3     1  UNL1       -0.2706
      4 C         139.5611  139.7799  166.6692 C.3     1  UNL1        0.0917
      5 C         139.1460  139.9106  168.1046 C.3     1  UNL1        0.1583
      6 O         140.1620  139.7518  169.1966 O.3     1  UNL1       -0.3534
      7 C         141.4075  139.3597  164.8903 C.3     1  UNL1        0.0610
      8 C         142.0270  140.5263  164.1795 C.3     1  UNL1        0.0375
      9 C         142.4422  140.3956  162.7441 C.3     1  UNL1        0.0950
     10 N         142.2380  139.0982  162.0194 N.pl3   1  UNL1       -0.2785
     11 C         141.6185  137.9316  162.7301 C.3     1  UNL1        0.0950
     12 C         141.2033  138.0623  164.1656 C.3     1  UNL1        0.0375
     13 C         142.6532  138.9676  160.5840 C.ar    1  UNL1        0.2163
     14 N         142.2007  137.9033  159.6287 N.ar    1  UNL1       -0.1804
     15 C         142.8616  138.1562  158.3061 C.ar    1  UNL1        0.2331
     16 N         142.6915  137.3330  157.0637 N.pl3   1  UNL1       -0.3262
     17 N         143.7226  139.3767  158.4440 N.ar    1  UNL1       -0.1354
     18 N         143.5938  139.8782  159.8518 N.ar    1  UNL1       -0.2450
     19 H         142.1010  136.5453  157.0722 H       1  UNL1        0.1452
     20 H         143.1703  137.5805  156.2398 H       1  UNL1        0.1452
     21 H         144.0470  140.6665  160.2290 H       1  UNL1        0.1919
     22 C         143.1718  140.5148  170.6281 C.3     1  UNL1        0.0025
     23 C         142.6091  139.3036  169.9453 C.3     1  UNL1        0.0286
     24 C         143.0624  137.9336  170.3546 C.3     1  UNL1        0.0025
     25 C         138.5452  139.9387  165.5771 C.3     1  UNL1        0.0448
     26 C         138.4739  141.2193  164.7994 C.ar    1  UNL1       -0.0207
     27 C         137.7519  141.2595  163.4852 C.ar    1  UNL1       -0.0034
     28 C         137.6807  142.5401  162.7074 C.ar    1  UNL1        0.0111
     29 C         138.3314  143.7806  163.2439 C.ar    1  UNL1        0.0577
     30 CL        138.2601  145.0613  162.4661 Cl      1  UNL1       -0.0822
     31 C         139.0533  143.7404  164.5581 C.ar    1  UNL1        0.0111
     32 C         139.1246  142.4598  165.3359 C.ar    1  UNL1       -0.0034
@<TRIPOS>BOND
     1    22    23    1
     2    23    24    1
     3     1    23    1
     4     1     2    1
     5     2     3    1
     6     3     7    1
     7     7     8    1
     8     8     9    1
     9     9    10    1
    10    10    13    1
    11    13    14   ar
    12    14    15   ar
    13    15    16    1
    14    15    17   ar
    15    17    18   ar
    16    10    11    1
    17    11    12    1
    18     3     4    1
    19     4    25    1
    20    25    26    1
    21    26    27   ar
    22    27    28   ar
    23    28    29   ar
    24    29    30    1
    25    29    31   ar
    26    31    32   ar
    27     4     5    1
    28     5     6    1
    29     6     1    1
    30    12     7    1
    31    32    26   ar
    32    18    13   ar
    33    16    19    1
    34    16    20    1
    35    18    21    1
@<TRIPOS>MOLECULE
*****
 32 35 0 0 0
SMALL
GASTEIGER

@<TRIPOS>ATOM
      1 C         141.4077  138.6952  158.7887 C.3     1  UNL1        0.1311
      2 C         141.7093  138.7697  160.2561 C.3     1  UNL1        0.1020
      3 N         140.6030  139.0208  161.2375 N.3     1  UNL1       -0.2706
      4 C         139.1950  139.1974  160.7514 C.3     1  UNL1        0.0917
      5 C         138.8934  139.1230  159.2840 C.3     1  UNL1        0.1583
      6 O         139.9997  138.8719  158.3026 O.3     1  UNL1       -0.3534
      7 C         140.9048  139.0952  162.7050 C.3     1  UNL1        0.0610
      8 C         140.5790  137.9344  163.5975 C.3     1  UNL1        0.0375
      9 C         140.8807  138.0088  165.0649 C.3     1  UNL1        0.0950
     10 N         141.5082  139.2440  165.6399 N.pl3   1  UNL1       -0.2785
     11 C         141.8340  140.4048  164.7475 C.3     1  UNL1        0.0950
     12 C         141.5322  140.3303  163.2800 C.3     1  UNL1        0.0375
     13 C         141.8099  139.3184  167.1074 C.ar    1  UNL1        0.2163
     14 N         140.8845  139.8261  168.1731 N.ar    1  UNL1       -0.1804
     15 C         141.5926  139.7196  169.4911 C.ar    1  UNL1        0.2331
     16 N         141.0354  140.1169  170.8260 N.pl3   1  UNL1       -0.3262
     17 N         142.9557  139.1461  169.2400 N.ar    1  UNL1       -0.1354
     18 N         143.0900  138.8982  167.7667 N.ar    1  UNL1       -0.2450
     19 H         140.1250  140.4862  170.8892 H       1  UNL1        0.1452
     20 H         141.5802  140.0084  171.6388 H       1  UNL1        0.1452
     21 H         143.8797  138.5251  167.3123 H       1  UNL1        0.1919
     22 C         142.7813  137.0514  157.3187 C.3     1  UNL1        0.0025
     23 C         142.5140  138.4441  157.8074 C.3     1  UNL1        0.0286
     24 C         143.3530  139.5858  157.3147 C.3     1  UNL1        0.0025
     25 C         138.0887  139.4485  161.7327 C.3     1  UNL1        0.0448
     26 C         138.0547  140.7290  162.5131 C.ar    1  UNL1       -0.0207
     27 C         138.0381  140.6933  164.0127 C.ar    1  UNL1       -0.0034
     28 C         138.0041  141.9738  164.7930 C.ar    1  UNL1        0.0111
     29 C         137.9866  143.2901  164.0740 C.ar    1  UNL1        0.0577
     30 CL        137.9526  144.5707  164.8544 Cl      1  UNL1       -0.0822
     31 C         138.0032  143.3259  162.5745 C.ar    1  UNL1        0.0111
     32 C         138.0372  142.0453  161.7940 C.ar    1  UNL1       -0.0034
@<TRIPOS>BOND
     1    22    23    1
     2    23    24    1
     3     1    23    1
     4     1     2    1
     5     2     3    1
     6     3     7    1
     7     7     8    1
     8     8     9    1
     9     9    10    1
    10    10    13    1
    11    13    14   ar
    12    14    15   ar
    13    15    16    1
    14    15    17   ar
    15    17    18   ar
    16    10    11    1
    17    11    12    1
    18     3     4    1
    19     4    25    1
    20    25    26    1
    21    26    27   ar
    22    27    28   ar
    23    28    29   ar
    24    29    30    1
    25    29    31   ar
    26    31    32   ar
    27     4     5    1
    28     5     6    1
    29     6     1    1
    30    12     7    1
    31    32    26   ar
    32    18    13   ar
    33    16    19    1
    34    16    20    1
    35    18    21    1
@<TRIPOS>MOLECULE
*****
 32 35 0 0 0
SMALL
GASTEIGER

@<TRIPOS>ATOM
      1 C         140.3874  140.3057  168.7502 C.3     1  UNL1        0.1311
      2 C         140.0283  140.2638  167.2944 C.3     1  UNL1        0.1020
      3 N         141.0264  139.7695  166.2897 N.3     1  UNL1       -0.2706
      4 C         142.3835  139.3171  166.7407 C.3     1  UNL1        0.0917
      5 C         142.7426  139.3589  168.1965 C.3     1  UNL1        0.1583
      6 O         141.7445  139.8532  169.2012 O.3     1  UNL1       -0.3534
      7 C         140.6673  139.7277  164.8339 C.3     1  UNL1        0.0610
      8 C         140.5995  140.9994  164.0413 C.3     1  UNL1        0.0375
      9 C         140.2404  140.9576  162.5855 C.3     1  UNL1        0.0950
     10 N         139.9491  139.6440  161.9223 N.pl3   1  UNL1       -0.2785
     11 C         140.0169  138.3723  162.7149 C.3     1  UNL1        0.0950
     12 C         140.3760  138.4142  164.1707 C.3     1  UNL1        0.0375
     13 C         139.5900  139.6022  160.4665 C.ar    1  UNL1        0.2163
     14 N         139.8729  138.4729  159.5207 N.ar    1  UNL1       -0.1804
     15 C         139.3427  138.8551  158.1706 C.ar    1  UNL1        0.2331
     16 N         139.4111  138.0186  156.9274 N.pl3   1  UNL1       -0.3262
     17 N         138.7321  140.2207  158.2820 N.ar    1  UNL1       -0.1354
     18 N         138.8849  140.6824  159.7009 N.ar    1  UNL1       -0.2450
     19 H         139.8343  137.1301  156.9546 H       1  UNL1        0.1452
     20 H         139.0328  138.3581  156.0842 H       1  UNL1        0.1452
     21 H         138.5766  141.5433  160.0657 H       1  UNL1        0.1919
     22 C         139.5755  142.1415  170.3996 C.3     1  UNL1        0.0025
     23 C         139.3893  140.8000  169.7549 C.3     1  UNL1        0.0286
     24 C         138.2050  139.9528  170.1150 C.3     1  UNL1        0.0025
     25 C         143.3816  138.8228  165.7359 C.3     1  UNL1        0.0448
     26 C         143.8241  139.7170  164.6159 C.ar    1  UNL1       -0.0207
     27 C         144.1856  141.1458  164.8950 C.ar    1  UNL1       -0.0034
     28 C         144.6280  142.0400  163.7749 C.ar    1  UNL1        0.0111
     29 C         144.7091  141.5054  162.3757 C.ar    1  UNL1        0.0577
     30 CL        145.1516  142.3997  161.2556 Cl      1  UNL1       -0.0822
     31 C         144.3476  140.0767  162.0966 C.ar    1  UNL1        0.0111
     32 C         143.9051  139.1824  163.2167 C.ar    1  UNL1       -0.0034
@<TRIPOS>BOND
     1    22    23    1
     2    23    24    1
     3     1    23    1
     4     1     2    1
     5     2     3    1
     6     3     7    1
     7     7     8    1
     8     8     9    1
     9     9    10    1
    10    10    13    1
    11    13    14   ar
    12    14    15   ar
    13    15    16    1
    14    15    17   ar
    15    17    18   ar
    16    10    11    1
    17    11    12    1
    18     3     4    1
    19     4    25    1
    20    25    26    1
    21    26    27   ar
    22    27    28   ar
    23    28    29   ar
    24    29    30    1
    25    29    31   ar
    26    31    32   ar
    27     4     5    1
    28     5     6    1
    29     6     1    1
    30    12     7    1
    31    32    26   ar
    32    18    13   ar
    33    16    19    1
    34    16    20    1
    35    18    21    1
@<TRIPOS>MOLECULE
*****
 32 35 0 0 0
SMALL
GASTEIGER

@<TRIPOS>ATOM
      1 C         137.1183  138.7570  170.2113 C.3     1  UNL1        0.1311
      2 C         138.3024  139.6191  170.5347 C.3     1  UNL1        0.1020
      3 N         139.2192  140.0759  169.4389 N.3     1  UNL1       -0.2706
      4 C         138.9519  139.6706  168.0197 C.3     1  UNL1        0.0917
      5 C         137.7678  138.8085  167.6963 C.3     1  UNL1        0.1583
      6 O         136.8510  138.3517  168.7921 O.3     1  UNL1       -0.3534
      7 C         140.4033  140.9381  169.7624 C.3     1  UNL1        0.0610
      8 C         140.2530  142.4296  169.8149 C.3     1  UNL1        0.0375
      9 C         141.4371  143.2918  170.1384 C.3     1  UNL1        0.0950
     10 N         142.7715  142.6624  170.4093 N.pl3   1  UNL1       -0.2785
     11 C         142.9218  141.1709  170.3567 C.3     1  UNL1        0.0950
     12 C         141.7376  140.3087  170.0332 C.3     1  UNL1        0.0375
     13 C         143.9555  143.5246  170.7327 C.ar    1  UNL1        0.2163
     14 N         145.3834  143.2299  170.3799 N.ar    1  UNL1       -0.1804
     15 C         146.2300  144.3560  170.8949 C.ar    1  UNL1        0.2331
     16 N         147.7196  144.4712  170.7621 N.pl3   1  UNL1       -0.3262
     17 N         145.3253  145.3466  171.5661 N.ar    1  UNL1       -0.1354
     18 N         143.9197  144.8327  171.4658 N.ar    1  UNL1       -0.2450
     19 H         148.2289  143.7655  170.3018 H       1  UNL1        0.1452
     20 H         148.1881  145.2526  171.1352 H       1  UNL1        0.1452
     21 H         143.1149  145.2762  171.8191 H       1  UNL1        0.1919
     22 C         136.4452  136.9872  171.9903 C.3     1  UNL1        0.0025
     23 C         136.2015  138.3002  171.3071 C.3     1  UNL1        0.0286
     24 C         135.0410  139.1563  171.7198 C.3     1  UNL1        0.0025
     25 C         139.8686  140.1274  166.9238 C.3     1  UNL1        0.0448
     26 C         139.4522  141.2456  166.0150 C.ar    1  UNL1       -0.0207
     27 C         140.0765  142.6019  166.1597 C.ar    1  UNL1       -0.0034
     28 C         139.6600  143.7201  165.2508 C.ar    1  UNL1        0.0111
     29 C         138.6193  143.4821  164.1971 C.ar    1  UNL1        0.0577
     30 CL        138.2029  144.6004  163.2882 Cl      1  UNL1       -0.0822
     31 C         137.9950  142.1260  164.0523 C.ar    1  UNL1        0.0111
     32 C         138.4115  141.0077  164.9613 C.ar    1  UNL1       -0.0034
@<TRIPOS>BOND
     1    22    23    1
     2    23    24    1
     3     1    23    1
     4     1     2    1
     5     2     3    1
     6     3     7    1
     7     7     8    1
     8     8     9    1
     9     9    10    1
    10    10    13    1
    11    13    14   ar
    12    14    15   ar
    13    15    16    1
    14    15    17   ar
    15    17    18   ar
    16    10    11    1
    17    11    12    1
    18     3     4    1
    19     4    25    1
    20    25    26    1
    21    26    27   ar
    22    27    28   ar
    23    28    29   ar
    24    29    30    1
    25    29    31   ar
    26    31    32   ar
    27     4     5    1
    28     5     6    1
    29     6     1    1
    30    12     7    1
    31    32    26   ar
    32    18    13   ar
    33    16    19    1
    34    16    20    1
    35    18    21    1
@<TRIPOS>MOLECULE
*****
 32 35 0 0 0
SMALL
GASTEIGER

@<TRIPOS>ATOM
      1 C         141.7793  138.7068  158.9921 C.3     1  UNL1        0.1311
      2 C         141.2026  138.8325  160.3711 C.3     1  UNL1        0.1020
      3 N         142.0754  139.2623  161.5128 N.3     1  UNL1       -0.2706
      4 C         143.5249  139.5664  161.2755 C.3     1  UNL1        0.0917
      5 C         144.1017  139.4407  159.8966 C.3     1  UNL1        0.1583
      6 O         143.2289  139.0109  158.7549 O.3     1  UNL1       -0.3534
      7 C         141.4986  139.3881  162.8918 C.3     1  UNL1        0.0610
      8 C         141.6656  138.2714  163.8793 C.3     1  UNL1        0.0375
      9 C         141.0888  138.3971  165.2582 C.3     1  UNL1        0.0950
     10 N         140.3450  139.6395  165.6497 N.pl3   1  UNL1       -0.2785
     11 C         140.1779  140.7561  164.6622 C.3     1  UNL1        0.0950
     12 C         140.7547  140.6304  163.2832 C.3     1  UNL1        0.0375
     13 C         139.7682  139.7651  167.0286 C.ar    1  UNL1        0.2163
     14 N         140.3298  140.5917  168.1472 N.ar    1  UNL1       -0.1804
     15 C         139.4372  140.4238  169.3410 C.ar    1  UNL1        0.2331
     16 N         139.6249  141.0724  170.6805 N.pl3   1  UNL1       -0.3262
     17 N         138.3240  139.4933  168.9602 N.ar    1  UNL1       -0.1354
     18 N         138.5285  139.0862  167.5311 N.ar    1  UNL1       -0.2450
     19 H         140.3911  141.6711  170.8344 H       1  UNL1        0.1452
     20 H         138.9819  140.8993  171.4056 H       1  UNL1        0.1452
     21 H         137.9506  138.4800  167.0137 H       1  UNL1        0.1919
     22 C         141.3771  137.2100  156.9070 C.3     1  UNL1        0.0025
     23 C         140.9066  138.2770  157.8504 C.3     1  UNL1        0.0286
     24 C         139.5632  138.9141  157.6521 C.3     1  UNL1        0.0025
     25 C         144.3977  139.9963  162.4173 C.3     1  UNL1        0.0448
     26 C         144.2895  141.3902  162.9606 C.ar    1  UNL1       -0.0207
     27 C         144.2845  142.5619  162.0240 C.ar    1  UNL1       -0.0034
     28 C         144.1763  143.9559  162.5673 C.ar    1  UNL1        0.0111
     29 C         144.0731  144.1781  164.0471 C.ar    1  UNL1        0.0577
     30 CL        143.9649  145.5722  164.5904 Cl      1  UNL1       -0.0822
     31 C         144.0781  143.0065  164.9837 C.ar    1  UNL1        0.0111
     32 C         144.1863  141.6125  164.4404 C.ar    1  UNL1       -0.0034
@<TRIPOS>BOND
     1    22    23    1
     2    23    24    1
     3     1    23    1
     4     1     2    1
     5     2     3    1
     6     3     7    1
     7     7     8    1
     8     8     9    1
     9     9    10    1
    10    10    13    1
    11    13    14   ar
    12    14    15   ar
    13    15    16    1
    14    15    17   ar
    15    17    18   ar
    16    10    11    1
    17    11    12    1
    18     3     4    1
    19     4    25    1
    20    25    26    1
    21    26    27   ar
    22    27    28   ar
    23    28    29   ar
    24    29    30    1
    25    29    31   ar
    26    31    32   ar
    27     4     5    1
    28     5     6    1
    29     6     1    1
    30    12     7    1
    31    32    26   ar
    32    18    13   ar
    33    16    19    1
    34    16    20    1
    35    18    21    1
