@<TRIPOS>MOLECULE
*****
 21 23 0 0 0
SMALL
GASTEIGER

@<TRIPOS>ATOM
      1 N         138.8305  139.5027  165.1707 N.am    1  UNL1       -0.2035
      2 C         138.1791  138.8667  166.3629 C.3     1  UNL1        0.1350
      3 C         138.8060  139.4446  167.5970 C.3     1  UNL1        0.1229
      4 N         139.8448  140.4379  167.1676 N.am    1  UNL1       -0.2403
      5 C         139.8599  140.4738  165.6681 C.2     1  UNL1        0.3244
      6 O         140.7485  141.3303  164.8155 O.2     1  UNL1       -0.2507
      7 C         140.7157  141.2523  168.0778 C.ar    1  UNL1        0.0562
      8 C         142.1176  140.8068  168.3711 C.ar    1  UNL1        0.0150
      9 C         142.9884  141.6212  169.2813 C.ar    1  UNL1        0.0021
     10 C         142.4572  142.8810  169.8982 C.ar    1  UNL1        0.0115
     11 C         141.0552  143.3265  169.6050 C.ar    1  UNL1        0.0589
     12 CL        140.5240  144.5863  170.2219 Cl      1  UNL1       -0.0822
     13 C         140.1845  142.5121  168.6948 C.ar    1  UNL1        0.0263
     14 C         137.8182  140.1502  162.7831 C.3     1  UNL1        0.1056
     15 C         137.7039  139.4590  161.4567 C.3     1  UNL1        0.0217
     16 C         138.3239  138.0995  161.5876 C.3     1  UNL1        0.0206
     17 C         138.8214  137.9504  162.9948 C.3     1  UNL1        0.0923
     18 N         138.5088  139.2178  163.7336 N.3     1  UNL1       -0.2003
     19 C         137.3279  141.5313  163.1028 C.3     1  UNL1        0.1598
     20 C         137.7705  144.0907  163.0445 C.3     1  UNL1        0.1742
     21 O         137.9741  142.7236  162.4618 O.3     1  UNL1       -0.3496
@<TRIPOS>BOND
     1    20    21    1
     2    21    19    1
     3    14    19    1
     4    14    15    1
     5    15    16    1
     6    16    17    1
     7    17    18    1
     8    18     1    1
     9     1     2    1
    10     2     3    1
    11     3     4    1
    12     4     7    1
    13     7     8   ar
    14     8     9   ar
    15     9    10   ar
    16    10    11   ar
    17    11    12    1
    18    11    13   ar
    19     4     5   am
    20     5     6    2
    21    18    14    1
    22     5     1   am
    23    13     7   ar
@<TRIPOS>MOLECULE
*****
 21 23 0 0 0
SMALL
GASTEIGER

@<TRIPOS>ATOM
      1 N         140.4790  140.6903  163.8307 N.am    1  UNL1       -0.2035
      2 C         141.6350  141.5475  163.4078 C.3     1  UNL1        0.1350
      3 C         142.1609  142.2498  164.6244 C.3     1  UNL1        0.1229
      4 N         141.3299  141.8266  165.7993 N.am    1  UNL1       -0.2403
      5 C         140.2904  140.8628  165.3087 C.2     1  UNL1        0.3244
      6 O         139.2458  140.1897  166.1488 O.2     1  UNL1       -0.2507
      7 C         141.5072  142.2865  167.2161 C.ar    1  UNL1        0.0562
      8 C         140.3578  142.9085  167.9521 C.ar    1  UNL1        0.0150
      9 C         140.5352  143.3684  169.3688 C.ar    1  UNL1        0.0021
     10 C         141.8620  143.2061  170.0494 C.ar    1  UNL1        0.0115
     11 C         143.0114  142.5841  169.3134 C.ar    1  UNL1        0.0589
     12 CL        144.3382  142.4218  169.9941 Cl      1  UNL1       -0.0822
     13 C         142.8340  142.1242  167.8967 C.ar    1  UNL1        0.0263
     14 C         138.2227  140.0407  162.5532 C.3     1  UNL1        0.1056
     15 C         137.8027  138.9246  161.6432 C.3     1  UNL1        0.0217
     16 C         138.9765  138.0087  161.4608 C.3     1  UNL1        0.0206
     17 C         140.1219  138.5586  162.2580 C.3     1  UNL1        0.0923
     18 N         139.6560  139.8145  162.9332 N.3     1  UNL1       -0.2003
     19 C         137.3607  141.1825  163.0041 C.3     1  UNL1        0.1598
     20 C         137.9132  143.7211  163.0184 C.3     1  UNL1        0.1742
     21 O         137.4297  142.5010  162.2921 O.3     1  UNL1       -0.3496
@<TRIPOS>BOND
     1    20    21    1
     2    21    19    1
     3    14    19    1
     4    14    15    1
     5    15    16    1
     6    16    17    1
     7    17    18    1
     8    18     1    1
     9     1     2    1
    10     2     3    1
    11     3     4    1
    12     4     7    1
    13     7     8   ar
    14     8     9   ar
    15     9    10   ar
    16    10    11   ar
    17    11    12    1
    18    11    13   ar
    19     4     5   am
    20     5     6    2
    21    18    14    1
    22     5     1   am
    23    13     7   ar
@<TRIPOS>MOLECULE
*****
 21 23 0 0 0
SMALL
GASTEIGER

@<TRIPOS>ATOM
      1 N         141.6358  140.4713  163.6588 N.am    1  UNL1       -0.2035
      2 C         140.6610  141.5590  163.3171 C.3     1  UNL1        0.1350
      3 C         140.0441  142.0467  164.5944 C.3     1  UNL1        0.1229
      4 N         140.6375  141.2604  165.7256 N.am    1  UNL1       -0.2403
      5 C         141.6213  140.2868  165.1474 C.2     1  UNL1        0.3244
      6 O         142.4458  139.3017  165.9217 O.2     1  UNL1       -0.2507
      7 C         140.3056  141.4198  167.1797 C.ar    1  UNL1        0.0562
      8 C         139.7042  140.2761  167.9415 C.ar    1  UNL1        0.0150
      9 C         139.3723  140.4355  169.3955 C.ar    1  UNL1        0.0021
     10 C         139.6417  141.7386  170.0878 C.ar    1  UNL1        0.0115
     11 C         140.2430  142.8823  169.3261 C.ar    1  UNL1        0.0589
     12 CL        140.5124  144.1855  170.0184 Cl      1  UNL1       -0.0822
     13 C         140.5749  142.7229  167.8720 C.ar    1  UNL1        0.0263
     14 C         142.3428  138.2445  162.3603 C.3     1  UNL1        0.1056
     15 C         143.3835  137.8985  161.3369 C.3     1  UNL1        0.0217
     16 C         144.1612  139.1432  161.0276 C.3     1  UNL1        0.0206
     17 C         143.6012  140.2585  161.8597 C.3     1  UNL1        0.0923
     18 N         142.4774  139.7031  162.6834 N.3     1  UNL1       -0.2003
     19 C         141.3430  137.2981  162.9560 C.3     1  UNL1        0.1598
     20 C         138.8642  137.9324  163.4061 C.3     1  UNL1        0.1742
     21 O         139.9115  137.3409  162.5099 O.3     1  UNL1       -0.3496
@<TRIPOS>BOND
     1    20    21    1
     2    21    19    1
     3    14    19    1
     4    14    15    1
     5    15    16    1
     6    16    17    1
     7    17    18    1
     8    18     1    1
     9     1     2    1
    10     2     3    1
    11     3     4    1
    12     4     7    1
    13     7     8   ar
    14     8     9   ar
    15     9    10   ar
    16    10    11   ar
    17    11    12    1
    18    11    13   ar
    19     4     5   am
    20     5     6    2
    21    18    14    1
    22     5     1   am
    23    13     7   ar
@<TRIPOS>MOLECULE
*****
 21 23 0 0 0
SMALL
GASTEIGER

@<TRIPOS>ATOM
      1 N         139.1586  139.3257  164.8841 N.am    1  UNL1       -0.2035
      2 C         138.3029  138.8372  166.0151 C.3     1  UNL1        0.1350
      3 C         138.8183  139.4490  167.2840 C.3     1  UNL1        0.1229
      4 N         139.9926  140.3155  166.9372 N.am    1  UNL1       -0.2403
      5 C         140.2029  140.2393  165.4540 C.2     1  UNL1        0.3244
      6 O         141.2701  140.9517  164.6771 O.2     1  UNL1       -0.2507
      7 C         140.8126  141.1175  167.9040 C.ar    1  UNL1        0.0562
      8 C         142.2056  140.6807  168.2484 C.ar    1  UNL1        0.0150
      9 C         143.0255  141.4826  169.2151 C.ar    1  UNL1        0.0021
     10 C         142.4525  142.7214  169.8373 C.ar    1  UNL1        0.0115
     11 C         141.0595  143.1581  169.4928 C.ar    1  UNL1        0.0589
     12 CL        140.4864  144.3969  170.1150 Cl      1  UNL1       -0.0822
     13 C         140.2395  142.3562  168.5262 C.ar    1  UNL1        0.0263
     14 C         139.8610  138.0096  162.6661 C.3     1  UNL1        0.1056
     15 C         139.3428  137.9490  161.2597 C.3     1  UNL1        0.0217
     16 C         138.1599  138.8660  161.1617 C.3     1  UNL1        0.0206
     17 C         137.9469  139.4934  162.5074 C.3     1  UNL1        0.0923
     18 N         138.9982  138.9640  163.4372 N.3     1  UNL1       -0.2003
     19 C         141.0356  137.2492  163.2065 C.3     1  UNL1        0.1598
     20 C         142.9512  138.5648  162.0448 C.3     1  UNL1        0.1742
     21 O         142.3868  137.8981  163.2642 O.3     1  UNL1       -0.3496
@<TRIPOS>BOND
     1    20    21    1
     2    21    19    1
     3    14    19    1
     4    14    15    1
     5    15    16    1
     6    16    17    1
     7    17    18    1
     8    18     1    1
     9     1     2    1
    10     2     3    1
    11     3     4    1
    12     4     7    1
    13     7     8   ar
    14     8     9   ar
    15     9    10   ar
    16    10    11   ar
    17    11    12    1
    18    11    13   ar
    19     4     5   am
    20     5     6    2
    21    18    14    1
    22     5     1   am
    23    13     7   ar
@<TRIPOS>MOLECULE
*****
 21 23 0 0 0
SMALL
GASTEIGER

@<TRIPOS>ATOM
      1 N         140.1676  140.8200  164.0074 N.am    1  UNL1       -0.2035
      2 C         141.2668  141.7167  163.5200 C.3     1  UNL1        0.1350
      3 C         141.8588  142.4130  164.7094 C.3     1  UNL1        0.1229
      4 N         141.1254  141.9466  165.9319 N.am    1  UNL1       -0.2403
      5 C         140.0802  140.9620  165.4980 C.2     1  UNL1        0.3244
      6 O         139.1168  140.2454  166.3970 O.2     1  UNL1       -0.2507
      7 C         141.3906  142.3873  167.3410 C.ar    1  UNL1        0.0562
      8 C         140.3043  143.0472  168.1375 C.ar    1  UNL1        0.0150
      9 C         140.5696  143.4879  169.5465 C.ar    1  UNL1        0.0021
     10 C         141.9212  143.2687  170.1591 C.ar    1  UNL1        0.0115
     11 C         143.0075  142.6088  169.3626 C.ar    1  UNL1        0.0589
     12 CL        144.3590  142.3896  169.9751 Cl      1  UNL1       -0.0822
     13 C         142.7422  142.1681  167.9536 C.ar    1  UNL1        0.0263
     14 C         139.2858  138.4367  163.1784 C.3     1  UNL1        0.1056
     15 C         138.2821  137.9707  162.1658 C.3     1  UNL1        0.0217
     16 C         137.6829  139.1823  161.5155 C.3     1  UNL1        0.0206
     17 C         138.3163  140.3972  162.1263 C.3     1  UNL1        0.0923
     18 N         139.3069  139.9363  163.1539 N.3     1  UNL1       -0.2003
     19 C         140.1217  137.5574  164.0605 C.3     1  UNL1        0.1598
     20 C         142.1844  137.9320  162.5261 C.3     1  UNL1        0.1742
     21 O         141.5198  137.1981  163.6528 O.3     1  UNL1       -0.3496
@<TRIPOS>BOND
     1    20    21    1
     2    21    19    1
     3    14    19    1
     4    14    15    1
     5    15    16    1
     6    16    17    1
     7    17    18    1
     8    18     1    1
     9     1     2    1
    10     2     3    1
    11     3     4    1
    12     4     7    1
    13     7     8   ar
    14     8     9   ar
    15     9    10   ar
    16    10    11   ar
    17    11    12    1
    18    11    13   ar
    19     4     5   am
    20     5     6    2
    21    18    14    1
    22     5     1   am
    23    13     7   ar
@<TRIPOS>MOLECULE
*****
 21 23 0 0 0
SMALL
GASTEIGER

@<TRIPOS>ATOM
      1 N         140.5186  139.9248  163.9165 N.am    1  UNL1       -0.2035
      2 C         141.9712  140.0572  164.2666 C.3     1  UNL1        0.1350
      3 C         142.0648  140.5026  165.6959 C.3     1  UNL1        0.1229
      4 N         140.6701  140.6455  166.2291 N.am    1  UNL1       -0.2403
      5 C         139.7145  140.2884  165.1294 C.2     1  UNL1        0.3244
      6 O         138.2176  140.2939  165.2257 O.2     1  UNL1       -0.2507
      7 C         140.2965  141.0709  167.6182 C.ar    1  UNL1        0.0562
      8 C         139.6249  140.1009  168.5445 C.ar    1  UNL1        0.0150
      9 C         139.2513  140.5263  169.9335 C.ar    1  UNL1        0.0021
     10 C         139.5494  141.9216  170.3963 C.ar    1  UNL1        0.0115
     11 C         140.2210  142.8916  169.4700 C.ar    1  UNL1        0.0589
     12 CL        140.5190  144.2870  169.9328 Cl      1  UNL1       -0.0822
     13 C         140.5945  142.4662  168.0810 C.ar    1  UNL1        0.0263
     14 C         139.4907  140.4192  161.4991 C.3     1  UNL1        0.1056
     15 C         139.0242  139.5732  160.3516 C.3     1  UNL1        0.0217
     16 C         139.2123  138.1340  160.7303 C.3     1  UNL1        0.0206
     17 C         139.7950  138.0906  162.1118 C.3     1  UNL1        0.0923
     18 N         139.9670  139.5029  162.5869 N.3     1  UNL1       -0.2003
     19 C         139.4823  141.9183  161.5498 C.3     1  UNL1        0.1598
     20 C         137.6276  143.0306  162.9895 C.3     1  UNL1        0.1742
     21 O         138.1810  142.6582  161.6460 O.3     1  UNL1       -0.3496
@<TRIPOS>BOND
     1    20    21    1
     2    21    19    1
     3    14    19    1
     4    14    15    1
     5    15    16    1
     6    16    17    1
     7    17    18    1
     8    18     1    1
     9     1     2    1
    10     2     3    1
    11     3     4    1
    12     4     7    1
    13     7     8   ar
    14     8     9   ar
    15     9    10   ar
    16    10    11   ar
    17    11    12    1
    18    11    13   ar
    19     4     5   am
    20     5     6    2
    21    18    14    1
    22     5     1   am
    23    13     7   ar
@<TRIPOS>MOLECULE
*****
 21 23 0 0 0
SMALL
GASTEIGER

@<TRIPOS>ATOM
      1 N         141.5653  140.2745  163.5604 N.am    1  UNL1       -0.2035
      2 C         140.6903  141.4481  163.2334 C.3     1  UNL1        0.1350
      3 C         140.1182  141.9718  164.5173 C.3     1  UNL1        0.1229
      4 N         140.6397  141.1220  165.6379 N.am    1  UNL1       -0.2403
      5 C         141.5341  140.0729  165.0465 C.2     1  UNL1        0.3244
      6 O         142.2683  139.0091  165.8076 O.2     1  UNL1       -0.2507
      7 C         140.3226  141.2914  167.0942 C.ar    1  UNL1        0.0562
      8 C         139.6966  140.1647  167.8614 C.ar    1  UNL1        0.0150
      9 C         139.3795  140.3341  169.3177 C.ar    1  UNL1        0.0021
     10 C         139.6884  141.6302  170.0067 C.ar    1  UNL1        0.0115
     11 C         140.3144  142.7569  169.2395 C.ar    1  UNL1        0.0589
     12 CL        140.6233  144.0529  169.9285 Cl      1  UNL1       -0.0822
     13 C         140.6315  142.5874  167.7832 C.ar    1  UNL1        0.0263
     14 C         143.8168  139.5065  162.3415 C.3     1  UNL1        0.1056
     15 C         144.1575  138.5120  161.2716 C.3     1  UNL1        0.0217
     16 C         142.8875  137.8384  160.8434 C.3     1  UNL1        0.0206
     17 C         141.7619  138.4167  161.6487 C.3     1  UNL1        0.0923
     18 N         142.3362  139.4476  162.5746 N.3     1  UNL1       -0.2003
     19 C         144.7865  140.4026  163.0534 C.3     1  UNL1        0.1598
     20 C         144.1921  142.8484  163.6974 C.3     1  UNL1        0.1742
     21 O         144.8156  141.8706  162.7461 O.3     1  UNL1       -0.3496
@<TRIPOS>BOND
     1    20    21    1
     2    21    19    1
     3    14    19    1
     4    14    15    1
     5    15    16    1
     6    16    17    1
     7    17    18    1
     8    18     1    1
     9     1     2    1
    10     2     3    1
    11     3     4    1
    12     4     7    1
    13     7     8   ar
    14     8     9   ar
    15     9    10   ar
    16    10    11   ar
    17    11    12    1
    18    11    13   ar
    19     4     5   am
    20     5     6    2
    21    18    14    1
    22     5     1   am
    23    13     7   ar
@<TRIPOS>MOLECULE
*****
 21 23 0 0 0
SMALL
GASTEIGER

@<TRIPOS>ATOM
      1 N         141.1994  141.9982  163.4582 N.am    1  UNL1       -0.2035
      2 C         141.7862  140.6516  163.1544 C.3     1  UNL1        0.1350
      3 C         141.9014  139.8944  164.4441 C.3     1  UNL1        0.1229
      4 N         141.3858  140.7731  165.5451 N.am    1  UNL1       -0.2403
      5 C         140.9520  142.0733  164.9358 C.2     1  UNL1        0.3244
      6 O         140.3724  143.2432  165.6743 O.2     1  UNL1       -0.2507
      7 C         141.3163  140.4145  167.0000 C.ar    1  UNL1        0.0562
      8 C         142.5406  139.9159  167.7089 C.ar    1  UNL1        0.0150
      9 C         142.4710  139.5574  169.1637 C.ar    1  UNL1        0.0021
     10 C         141.1771  139.6974  169.9096 C.ar    1  UNL1        0.0115
     11 C         139.9529  140.1960  169.2007 C.ar    1  UNL1        0.0589
     12 CL        138.6591  140.3360  169.9466 Cl      1  UNL1       -0.0822
     13 C         140.0225  140.5545  167.7459 C.ar    1  UNL1        0.0263
     14 C         141.7116  144.3324  162.2608 C.3     1  UNL1        0.1056
     15 C         141.0664  145.1255  161.1632 C.3     1  UNL1        0.0217
     16 C         139.8668  144.3630  160.6839 C.3     1  UNL1        0.0206
     17 C         139.7706  143.0987  161.4853 C.3     1  UNL1        0.0923
     18 N         140.9108  143.0798  162.4599 N.3     1  UNL1       -0.2003
     19 C         142.9416  144.7233  163.0251 C.3     1  UNL1        0.1598
     20 C         144.6577  143.0713  161.9880 C.3     1  UNL1        0.1742
     21 O         144.3000  144.4531  162.4490 O.3     1  UNL1       -0.3496
@<TRIPOS>BOND
     1    20    21    1
     2    21    19    1
     3    14    19    1
     4    14    15    1
     5    15    16    1
     6    16    17    1
     7    17    18    1
     8    18     1    1
     9     1     2    1
    10     2     3    1
    11     3     4    1
    12     4     7    1
    13     7     8   ar
    14     8     9   ar
    15     9    10   ar
    16    10    11   ar
    17    11    12    1
    18    11    13   ar
    19     4     5   am
    20     5     6    2
    21    18    14    1
    22     5     1   am
    23    13     7   ar
@<TRIPOS>MOLECULE
*****
 21 23 0 0 0
SMALL
GASTEIGER

@<TRIPOS>ATOM
      1 N         140.8253  140.5172  163.7799 N.am    1  UNL1       -0.2035
      2 C         142.1201  139.9810  164.3150 C.3     1  UNL1        0.1350
      3 C         142.1222  140.1741  165.8026 C.3     1  UNL1        0.1229
      4 N         140.8289  140.8296  166.1868 N.am    1  UNL1       -0.2403
      5 C         140.0274  141.0416  164.9367 C.2     1  UNL1        0.3244
      6 O         138.6668  141.6681  164.8574 O.2     1  UNL1       -0.2507
      7 C         140.4105  141.2068  167.5771 C.ar    1  UNL1        0.0562
      8 C         139.7375  140.1964  168.4579 C.ar    1  UNL1        0.0150
      9 C         139.3191  140.5736  169.8481 C.ar    1  UNL1        0.0021
     10 C         139.5738  141.9613  170.3574 C.ar    1  UNL1        0.0115
     11 C         140.2469  142.9718  169.4765 C.ar    1  UNL1        0.0589
     12 CL        140.5016  144.3595  169.9858 Cl      1  UNL1       -0.0822
     13 C         140.6652  142.5945  168.0864 C.ar    1  UNL1        0.0263
     14 C         139.2300  139.7933  161.7611 C.3     1  UNL1        0.1056
     15 C         139.1813  140.0853  160.2906 C.3     1  UNL1        0.0217
     16 C         140.3239  140.9997  159.9615 C.3     1  UNL1        0.0206
     17 C         141.0788  141.2727  161.2285 C.3     1  UNL1        0.0923
     18 N         140.4028  140.5272  162.3407 N.3     1  UNL1       -0.2003
     19 C         138.2739  138.9206  162.5189 C.3     1  UNL1        0.1598
     20 C         138.9671  137.6103  164.6525 C.3     1  UNL1        0.1742
     21 O         138.7625  137.6593  163.1673 O.3     1  UNL1       -0.3496
@<TRIPOS>BOND
     1    20    21    1
     2    21    19    1
     3    14    19    1
     4    14    15    1
     5    15    16    1
     6    16    17    1
     7    17    18    1
     8    18     1    1
     9     1     2    1
    10     2     3    1
    11     3     4    1
    12     4     7    1
    13     7     8   ar
    14     8     9   ar
    15     9    10   ar
    16    10    11   ar
    17    11    12    1
    18    11    13   ar
    19     4     5   am
    20     5     6    2
    21    18    14    1
    22     5     1   am
    23    13     7   ar
