@<TRIPOS>MOLECULE
*****
 28 30 0 0 0
SMALL
GASTEIGER

@<TRIPOS>ATOM
      1 N         141.8832  139.8962  165.2459 N.pl3   1  UNL1       -0.2854
      2 F         141.6826  144.9948  162.0893 F       1  UNL1       -0.2042
      3 C         141.7328  143.7202  162.8785 C.ar    1  UNL1        0.1402
      4 C         141.7345  142.3985  162.1692 C.ar    1  UNL1        0.0309
      5 C         141.7847  141.1239  162.9583 C.ar    1  UNL1        0.0171
      6 C         141.8331  141.1709  164.4568 C.ar    1  UNL1        0.0518
      7 C         141.8313  142.4925  165.1661 C.ar    1  UNL1        0.0171
      8 C         141.7812  143.7672  164.3769 C.ar    1  UNL1        0.0309
      9 C         141.4733  139.8908  166.6888 C.ar    1  UNL1        0.0518
     10 C         142.5079  139.7221  167.7617 C.ar    1  UNL1        0.0171
     11 C         142.0980  139.7167  169.2047 C.ar    1  UNL1        0.0309
     12 C         140.6535  139.8799  169.5746 C.ar    1  UNL1        0.1402
     13 F         140.2436  139.8745  171.0175 F       1  UNL1       -0.2042
     14 C         139.6190  140.0486  168.5016 C.ar    1  UNL1        0.0309
     15 C         140.0288  140.0540  167.0588 C.ar    1  UNL1        0.0171
     16 C         142.3432  138.6270  164.5922 C.3     1  UNL1        0.1126
     17 C         141.4344  137.4345  164.5469 C.3     1  UNL1        0.0906
     18 N         140.4531  137.2817  163.4227 N.3     1  UNL1       -0.2960
     19 H         140.3774  136.2826  163.2317 H       1  UNL1        0.1233
     20 C         139.0539  137.8011  163.5727 C.3     1  UNL1        0.0689
     21 C         138.7086  139.1773  163.0861 C.3     1  UNL1        0.0218
     22 C         138.1077  140.1774  164.0289 C.3     1  UNL1        0.0278
     23 C         138.1184  141.6365  163.6812 C.ar    1  UNL1       -0.0221
     24 C         138.1328  142.6671  164.7709 C.ar    1  UNL1       -0.0043
     25 C         138.1435  144.1262  164.4232 C.ar    1  UNL1       -0.0003
     26 C         138.1397  144.5546  162.9857 C.ar    1  UNL1       -0.0000
     27 C         138.1252  143.5241  161.8960 C.ar    1  UNL1       -0.0003
     28 C         138.1145  142.0650  162.2437 C.ar    1  UNL1       -0.0043
@<TRIPOS>BOND
     1     2     3    1
     2     3     4   ar
     3     4     5   ar
     4     5     6   ar
     5     6     1    1
     6     1    16    1
     7    16    17    1
     8    17    18    1
     9    18    20    1
    10    20    21    1
    11    21    22    1
    12    22    23    1
    13    23    24   ar
    14    24    25   ar
    15    25    26   ar
    16    26    27   ar
    17    27    28   ar
    18     1     9    1
    19     9    10   ar
    20    10    11   ar
    21    11    12   ar
    22    12    13    1
    23    12    14   ar
    24    14    15   ar
    25     6     7   ar
    26     7     8   ar
    27     8     3   ar
    28    28    23   ar
    29    15     9   ar
    30    18    19    1
@<TRIPOS>MOLECULE
*****
 28 30 0 0 0
SMALL
GASTEIGER

@<TRIPOS>ATOM
      1 N         142.0179  139.6843  165.5527 N.pl3   1  UNL1       -0.2854
      2 F         140.2844  139.9228  171.2919 F       1  UNL1       -0.2042
      3 C         140.7178  139.8632  169.8571 C.ar    1  UNL1        0.1402
      4 C         142.1432  139.5431  169.5169 C.ar    1  UNL1        0.0309
      5 C         142.5765  139.4835  168.0821 C.ar    1  UNL1        0.0171
      6 C         141.5846  139.7439  166.9875 C.ar    1  UNL1        0.0518
      7 C         140.1592  140.0640  167.3278 C.ar    1  UNL1        0.0171
      8 C         139.7258  140.1236  168.7626 C.ar    1  UNL1        0.0309
      9 C         142.0336  140.9328  164.7215 C.ar    1  UNL1        0.0518
     10 C         142.4529  142.2364  165.3339 C.ar    1  UNL1        0.0171
     11 C         142.4686  143.4849  164.5026 C.ar    1  UNL1        0.0309
     12 C         142.0650  143.4299  163.0590 C.ar    1  UNL1        0.1402
     13 F         142.0807  144.6784  162.2277 F       1  UNL1       -0.2042
     14 C         141.6457  142.1263  162.4466 C.ar    1  UNL1        0.0309
     15 C         141.6301  140.8778  163.2778 C.ar    1  UNL1        0.0171
     16 C         142.4356  138.3762  164.9492 C.3     1  UNL1        0.1126
     17 C         141.3974  137.4096  164.4616 C.3     1  UNL1        0.0906
     18 N         139.9430  137.6859  164.7037 N.3     1  UNL1       -0.2960
     19 H         139.8919  138.5650  165.2185 H       1  UNL1        0.1233
     20 C         138.9995  137.8078  163.5440 C.3     1  UNL1        0.0689
     21 C         138.4312  139.1465  163.1770 C.3     1  UNL1        0.0218
     22 C         138.0662  140.1267  164.2522 C.3     1  UNL1        0.0278
     23 C         138.2016  141.5995  164.0018 C.ar    1  UNL1       -0.0221
     24 C         138.6831  142.5051  165.0963 C.ar    1  UNL1       -0.0043
     25 C         138.8185  143.9778  164.8460 C.ar    1  UNL1       -0.0003
     26 C         138.4724  144.5449  163.5011 C.ar    1  UNL1       -0.0000
     27 C         137.9909  143.6393  162.4066 C.ar    1  UNL1       -0.0003
     28 C         137.8555  142.1665  162.6570 C.ar    1  UNL1       -0.0043
@<TRIPOS>BOND
     1     2     3    1
     2     3     4   ar
     3     4     5   ar
     4     5     6   ar
     5     6     1    1
     6     1    16    1
     7    16    17    1
     8    17    18    1
     9    18    20    1
    10    20    21    1
    11    21    22    1
    12    22    23    1
    13    23    24   ar
    14    24    25   ar
    15    25    26   ar
    16    26    27   ar
    17    27    28   ar
    18     1     9    1
    19     9    10   ar
    20    10    11   ar
    21    11    12   ar
    22    12    13    1
    23    12    14   ar
    24    14    15   ar
    25     6     7   ar
    26     7     8   ar
    27     8     3   ar
    28    28    23   ar
    29    15     9   ar
    30    18    19    1
@<TRIPOS>MOLECULE
*****
 28 30 0 0 0
SMALL
GASTEIGER

@<TRIPOS>ATOM
      1 N         141.6611  142.4866  164.9754 N.pl3   1  UNL1       -0.2854
      2 F         141.9436  142.2091  170.9624 F       1  UNL1       -0.2042
      3 C         141.8730  142.2785  169.4656 C.ar    1  UNL1        0.1402
      4 C         143.1346  142.2768  168.6544 C.ar    1  UNL1        0.0309
      5 C         143.0640  142.3461  167.1576 C.ar    1  UNL1        0.0171
      6 C         141.7317  142.4172  166.4722 C.ar    1  UNL1        0.0518
      7 C         140.4701  142.4189  167.2834 C.ar    1  UNL1        0.0171
      8 C         140.5407  142.3496  168.7802 C.ar    1  UNL1        0.0309
      9 C         141.7764  141.2328  164.1603 C.ar    1  UNL1        0.0518
     10 C         141.4701  141.2618  162.6922 C.ar    1  UNL1        0.0171
     11 C         141.5855  140.0079  161.8770 C.ar    1  UNL1        0.0309
     12 C         142.0072  138.7250  162.5299 C.ar    1  UNL1        0.1402
     13 F         142.1225  137.4711  161.7147 F       1  UNL1       -0.2042
     14 C         142.3135  138.6960  163.9980 C.ar    1  UNL1        0.0309
     15 C         142.1982  139.9498  164.8132 C.ar    1  UNL1        0.0171
     16 C         141.4750  143.8098  164.2939 C.3     1  UNL1        0.1126
     17 C         140.1598  144.5245  164.3898 C.3     1  UNL1        0.0906
     18 N         139.2867  144.6545  163.1770 N.3     1  UNL1       -0.2960
     19 H         139.8041  144.2495  162.3969 H       1  UNL1        0.1233
     20 C         137.9234  144.0289  163.1637 C.3     1  UNL1        0.0689
     21 C         137.6850  142.7349  163.8838 C.3     1  UNL1        0.0218
     22 C         137.6534  141.4454  163.1183 C.3     1  UNL1        0.0278
     23 C         138.0909  140.1709  163.7776 C.ar    1  UNL1       -0.0221
     24 C         138.3147  138.9383  162.9527 C.ar    1  UNL1       -0.0043
     25 C         138.7522  137.6640  163.6120 C.ar    1  UNL1       -0.0003
     26 C         138.9658  137.6223  165.0961 C.ar    1  UNL1       -0.0000
     27 C         138.7421  138.8550  165.9210 C.ar    1  UNL1       -0.0003
     28 C         138.3046  140.1293  165.2617 C.ar    1  UNL1       -0.0043
@<TRIPOS>BOND
     1     2     3    1
     2     3     4   ar
     3     4     5   ar
     4     5     6   ar
     5     6     1    1
     6     1    16    1
     7    16    17    1
     8    17    18    1
     9    18    20    1
    10    20    21    1
    11    21    22    1
    12    22    23    1
    13    23    24   ar
    14    24    25   ar
    15    25    26   ar
    16    26    27   ar
    17    27    28   ar
    18     1     9    1
    19     9    10   ar
    20    10    11   ar
    21    11    12   ar
    22    12    13    1
    23    12    14   ar
    24    14    15   ar
    25     6     7   ar
    26     7     8   ar
    27     8     3   ar
    28    28    23   ar
    29    15     9   ar
    30    18    19    1
@<TRIPOS>MOLECULE
*****
 28 30 0 0 0
SMALL
GASTEIGER

@<TRIPOS>ATOM
      1 N         141.4440  138.7088  165.0015 N.pl3   1  UNL1       -0.2854
      2 F         146.0122  141.9298  162.8206 F       1  UNL1       -0.2042
      3 C         144.8701  141.1246  163.3658 C.ar    1  UNL1        0.1402
      4 C         143.4570  141.5471  163.0932 C.ar    1  UNL1        0.0309
      5 C         142.3149  140.7419  163.6384 C.ar    1  UNL1        0.0171
      6 C         142.5860  139.5140  164.4562 C.ar    1  UNL1        0.0518
      7 C         143.9992  139.0915  164.7289 C.ar    1  UNL1        0.0171
      8 C         145.1412  139.8968  164.1836 C.ar    1  UNL1        0.0309
      9 C         140.7109  139.1784  166.2230 C.ar    1  UNL1        0.0518
     10 C         139.2486  138.8834  166.3798 C.ar    1  UNL1        0.0171
     11 C         138.5156  139.3531  167.6014 C.ar    1  UNL1        0.0309
     12 C         139.2449  140.1176  168.6660 C.ar    1  UNL1        0.1402
     13 F         138.5118  140.5873  169.8876 F       1  UNL1       -0.2042
     14 C         140.7072  140.4126  168.5092 C.ar    1  UNL1        0.0309
     15 C         141.4402  139.9430  167.2877 C.ar    1  UNL1        0.0171
     16 C         141.0350  137.4339  164.3252 C.3     1  UNL1        0.1126
     17 C         140.2834  137.4808  163.0279 C.3     1  UNL1        0.0906
     18 N         138.8055  137.7376  163.0262 N.3     1  UNL1       -0.2960
     19 H         138.5774  138.1508  163.9304 H       1  UNL1        0.1233
     20 C         138.1997  138.6248  161.9793 C.3     1  UNL1        0.0689
     21 C         137.8717  140.0520  162.3041 C.3     1  UNL1        0.0218
     22 C         137.9100  140.5253  163.7269 C.3     1  UNL1        0.0278
     23 C         138.2697  141.9488  164.0344 C.ar    1  UNL1       -0.0221
     24 C         137.7069  143.0614  163.2005 C.ar    1  UNL1       -0.0043
     25 C         138.0666  144.4848  163.5080 C.ar    1  UNL1       -0.0003
     26 C         138.9890  144.7956  164.6493 C.ar    1  UNL1       -0.0000
     27 C         139.5517  143.6830  165.4831 C.ar    1  UNL1       -0.0003
     28 C         139.1921  142.2596  165.1757 C.ar    1  UNL1       -0.0043
@<TRIPOS>BOND
     1     2     3    1
     2     3     4   ar
     3     4     5   ar
     4     5     6   ar
     5     6     1    1
     6     1    16    1
     7    16    17    1
     8    17    18    1
     9    18    20    1
    10    20    21    1
    11    21    22    1
    12    22    23    1
    13    23    24   ar
    14    24    25   ar
    15    25    26   ar
    16    26    27   ar
    17    27    28   ar
    18     1     9    1
    19     9    10   ar
    20    10    11   ar
    21    11    12   ar
    22    12    13    1
    23    12    14   ar
    24    14    15   ar
    25     6     7   ar
    26     7     8   ar
    27     8     3   ar
    28    28    23   ar
    29    15     9   ar
    30    18    19    1
@<TRIPOS>MOLECULE
*****
 28 30 0 0 0
SMALL
GASTEIGER

@<TRIPOS>ATOM
      1 N         141.8707  139.7320  164.5443 N.pl3   1  UNL1       -0.2854
      2 F         143.5647  145.4808  164.2598 F       1  UNL1       -0.2042
      3 C         143.1412  144.0436  164.3309 C.ar    1  UNL1        0.1402
      4 C         143.9920  143.0462  165.0598 C.ar    1  UNL1        0.0309
      5 C         143.5685  141.6090  165.1309 C.ar    1  UNL1        0.0171
      6 C         142.2942  141.1692  164.4731 C.ar    1  UNL1        0.0518
      7 C         141.4434  142.1666  163.7443 C.ar    1  UNL1        0.0171
      8 C         141.8669  143.6038  163.6732 C.ar    1  UNL1        0.0309
      9 C         140.6294  139.3522  165.2957 C.ar    1  UNL1        0.0518
     10 C         140.2480  140.0983  166.5399 C.ar    1  UNL1        0.0171
     11 C         139.0066  139.7185  167.2914 C.ar    1  UNL1        0.0309
     12 C         138.1466  138.5925  166.7987 C.ar    1  UNL1        0.1402
     13 F         136.9052  138.2127  167.5502 F       1  UNL1       -0.2042
     14 C         138.5280  137.8464  165.5546 C.ar    1  UNL1        0.0309
     15 C         139.7694  138.2262  164.8031 C.ar    1  UNL1        0.0171
     16 C         142.6886  138.6746  163.8639 C.3     1  UNL1        0.1126
     17 C         142.7186  138.5976  162.3662 C.3     1  UNL1        0.0906
     18 N         141.4689  138.2625  161.6072 N.3     1  UNL1       -0.2960
     19 H         140.9629  137.5728  162.1628 H       1  UNL1        0.1233
     20 C         140.4886  139.3439  161.2617 C.3     1  UNL1        0.0689
     21 C         139.0154  139.0682  161.3226 C.3     1  UNL1        0.0218
     22 C         138.0346  140.1888  161.1433 C.3     1  UNL1        0.0278
     23 C         137.9981  141.3186  162.1294 C.ar    1  UNL1       -0.0221
     24 C         138.1304  142.7346  161.6528 C.ar    1  UNL1       -0.0043
     25 C         138.0940  143.8643  162.6389 C.ar    1  UNL1       -0.0003
     26 C         137.9251  143.5779  164.1016 C.ar    1  UNL1       -0.0000
     27 C         137.7928  142.1618  164.5782 C.ar    1  UNL1       -0.0003
     28 C         137.8293  141.0322  163.5921 C.ar    1  UNL1       -0.0043
@<TRIPOS>BOND
     1     2     3    1
     2     3     4   ar
     3     4     5   ar
     4     5     6   ar
     5     6     1    1
     6     1    16    1
     7    16    17    1
     8    17    18    1
     9    18    20    1
    10    20    21    1
    11    21    22    1
    12    22    23    1
    13    23    24   ar
    14    24    25   ar
    15    25    26   ar
    16    26    27   ar
    17    27    28   ar
    18     1     9    1
    19     9    10   ar
    20    10    11   ar
    21    11    12   ar
    22    12    13    1
    23    12    14   ar
    24    14    15   ar
    25     6     7   ar
    26     7     8   ar
    27     8     3   ar
    28    28    23   ar
    29    15     9   ar
    30    18    19    1
@<TRIPOS>MOLECULE
*****
 28 30 0 0 0
SMALL
GASTEIGER

@<TRIPOS>ATOM
      1 N         141.6490  140.5078  162.1052 N.pl3   1  UNL1       -0.2854
      2 F         144.3477  137.9453  166.8116 F       1  UNL1       -0.2042
      3 C         143.6730  138.5859  165.6350 C.ar    1  UNL1        0.1402
      4 C         144.4943  139.1247  164.5014 C.ar    1  UNL1        0.0309
      5 C         143.8196  139.7653  163.3248 C.ar    1  UNL1        0.0171
      6 C         142.3237  139.8671  163.2818 C.ar    1  UNL1        0.0518
      7 C         141.5025  139.3283  164.4155 C.ar    1  UNL1        0.0171
      8 C         142.1771  138.6877  165.5921 C.ar    1  UNL1        0.0309
      9 C         141.3255  141.9722  162.1319 C.ar    1  UNL1        0.0518
     10 C         142.1446  142.9060  162.9728 C.ar    1  UNL1        0.0171
     11 C         141.8210  144.3705  162.9994 C.ar    1  UNL1        0.0309
     12 C         140.6785  144.9011  162.1852 C.ar    1  UNL1        0.1402
     13 F         140.3549  146.3656  162.2118 F       1  UNL1       -0.2042
     14 C         139.8594  143.9673  161.3443 C.ar    1  UNL1        0.0309
     15 C         140.1829  142.5028  161.3176 C.ar    1  UNL1        0.0171
     16 C         141.2978  139.6839  160.9019 C.3     1  UNL1        0.1126
     17 C         140.6610  138.3369  161.0750 C.3     1  UNL1        0.0906
     18 N         139.1672  138.2163  161.1393 N.3     1  UNL1       -0.2960
     19 H         138.9365  137.2625  160.8611 H       1  UNL1        0.1233
     20 C         138.4486  138.4767  162.4300 C.3     1  UNL1        0.0689
     21 C         138.0909  139.8804  162.8193 C.3     1  UNL1        0.0218
     22 C         138.1300  140.2918  164.2613 C.3     1  UNL1        0.0278
     23 C         138.4010  141.7214  164.6262 C.ar    1  UNL1       -0.0221
     24 C         137.5484  142.8156  164.0557 C.ar    1  UNL1       -0.0043
     25 C         137.8195  144.2451  164.4206 C.ar    1  UNL1       -0.0003
     26 C         138.9432  144.5802  165.3560 C.ar    1  UNL1       -0.0000
     27 C         139.7958  143.4859  165.9265 C.ar    1  UNL1       -0.0003
     28 C         139.5247  142.0565  165.5616 C.ar    1  UNL1       -0.0043
@<TRIPOS>BOND
     1     2     3    1
     2     3     4   ar
     3     4     5   ar
     4     5     6   ar
     5     6     1    1
     6     1    16    1
     7    16    17    1
     8    17    18    1
     9    18    20    1
    10    20    21    1
    11    21    22    1
    12    22    23    1
    13    23    24   ar
    14    24    25   ar
    15    25    26   ar
    16    26    27   ar
    17    27    28   ar
    18     1     9    1
    19     9    10   ar
    20    10    11   ar
    21    11    12   ar
    22    12    13    1
    23    12    14   ar
    24    14    15   ar
    25     6     7   ar
    26     7     8   ar
    27     8     3   ar
    28    28    23   ar
    29    15     9   ar
    30    18    19    1
@<TRIPOS>MOLECULE
*****
 28 30 0 0 0
SMALL
GASTEIGER

@<TRIPOS>ATOM
      1 N         139.2259  140.2059  166.2251 N.pl3   1  UNL1       -0.2854
      2 F         138.9155  145.4565  163.3381 F       1  UNL1       -0.2042
      3 C         138.9931  144.1438  164.0598 C.ar    1  UNL1        0.1402
      4 C         138.2062  142.9673  163.5634 C.ar    1  UNL1        0.0309
      5 C         138.2838  141.6546  164.2851 C.ar    1  UNL1        0.0171
      6 C         139.1483  141.5185  165.5033 C.ar    1  UNL1        0.0518
      7 C         139.9351  142.6950  165.9998 C.ar    1  UNL1        0.0171
      8 C         139.8575  144.0077  165.2780 C.ar    1  UNL1        0.0309
      9 C         140.1922  140.0292  167.3586 C.ar    1  UNL1        0.0518
     10 C         139.7198  140.1687  168.7755 C.ar    1  UNL1        0.0171
     11 C         140.6862  139.9921  169.9091 C.ar    1  UNL1        0.0309
     12 C         142.1249  139.6759  169.6258 C.ar    1  UNL1        0.1402
     13 F         143.0913  139.4993  170.7594 F       1  UNL1       -0.2042
     14 C         142.5972  139.5364  168.2089 C.ar    1  UNL1        0.0309
     15 C         141.6309  139.7130  167.0754 C.ar    1  UNL1        0.0171
     16 C         138.3371  139.0699  165.8133 C.3     1  UNL1        0.1126
     17 C         138.8958  137.9345  165.0077 C.3     1  UNL1        0.0906
     18 N         138.9554  138.0341  163.5122 N.3     1  UNL1       -0.2960
     19 H         138.3523  138.8119  163.2446 H       1  UNL1        0.1233
     20 C         140.2719  138.2512  162.8268 C.3     1  UNL1        0.0689
     21 C         140.8280  139.6378  162.6930 C.3     1  UNL1        0.0218
     22 C         141.9957  140.0619  163.5336 C.3     1  UNL1        0.0278
     23 C         142.4135  141.5022  163.5648 C.ar    1  UNL1       -0.0221
     24 C         141.9339  142.4455  162.5017 C.ar    1  UNL1       -0.0043
     25 C         142.3518  143.8858  162.5330 C.ar    1  UNL1       -0.0003
     26 C         143.2492  144.3828  163.6274 C.ar    1  UNL1       -0.0000
     27 C         143.7287  143.4395  164.6905 C.ar    1  UNL1       -0.0003
     28 C         143.3109  141.9993  164.6592 C.ar    1  UNL1       -0.0043
@<TRIPOS>BOND
     1     2     3    1
     2     3     4   ar
     3     4     5   ar
     4     5     6   ar
     5     6     1    1
     6     1    16    1
     7    16    17    1
     8    17    18    1
     9    18    20    1
    10    20    21    1
    11    21    22    1
    12    22    23    1
    13    23    24   ar
    14    24    25   ar
    15    25    26   ar
    16    26    27   ar
    17    27    28   ar
    18     1     9    1
    19     9    10   ar
    20    10    11   ar
    21    11    12   ar
    22    12    13    1
    23    12    14   ar
    24    14    15   ar
    25     6     7   ar
    26     7     8   ar
    27     8     3   ar
    28    28    23   ar
    29    15     9   ar
    30    18    19    1
@<TRIPOS>MOLECULE
*****
 28 30 0 0 0
SMALL
GASTEIGER

@<TRIPOS>ATOM
      1 N         141.4872  138.9688  164.5759 N.pl3   1  UNL1       -0.2854
      2 F         138.3395  140.1067  169.5556 F       1  UNL1       -0.2042
      3 C         139.1264  139.8222  168.3107 C.ar    1  UNL1        0.1402
      4 C         138.4681  139.1444  167.1457 C.ar    1  UNL1        0.0309
      5 C         139.2550  138.8599  165.9008 C.ar    1  UNL1        0.0171
      6 C         140.7003  139.2532  165.8208 C.ar    1  UNL1        0.0518
      7 C         141.3586  139.9311  166.9858 C.ar    1  UNL1        0.0171
      8 C         140.5717  140.2155  168.2307 C.ar    1  UNL1        0.0309
      9 C         142.3861  140.0223  163.9997 C.ar    1  UNL1        0.0518
     10 C         141.7988  141.2781  163.4271 C.ar    1  UNL1        0.0171
     11 C         142.6978  142.3316  162.8508 C.ar    1  UNL1        0.0309
     12 C         144.1840  142.1293  162.8473 C.ar    1  UNL1        0.1402
     13 F         145.0830  143.1829  162.2711 F       1  UNL1       -0.2042
     14 C         144.7714  140.8735  163.4200 C.ar    1  UNL1        0.0309
     15 C         143.8725  139.8200  163.9962 C.ar    1  UNL1        0.0171
     16 C         141.3753  137.6308  163.9072 C.3     1  UNL1        0.1126
     17 C         140.6205  137.4976  162.6178 C.3     1  UNL1        0.0906
     18 N         139.1320  137.3127  162.6357 N.3     1  UNL1       -0.2960
     19 H         138.8657  137.1622  163.6088 H       1  UNL1        0.1233
     20 C         138.2359  138.3914  162.1033 C.3     1  UNL1        0.0689
     21 C         138.5789  139.8332  162.3340 C.3     1  UNL1        0.0218
     22 C         137.6834  140.6917  163.1773 C.3     1  UNL1        0.0278
     23 C         138.1239  142.0686  163.5776 C.ar    1  UNL1       -0.0221
     24 C         137.9623  143.2147  162.6236 C.ar    1  UNL1       -0.0043
     25 C         138.4028  144.5915  163.0239 C.ar    1  UNL1       -0.0003
     26 C         139.0049  144.8222  164.3782 C.ar    1  UNL1       -0.0000
     27 C         139.1665  143.6760  165.3323 C.ar    1  UNL1       -0.0003
     28 C         138.7260  142.2992  164.9319 C.ar    1  UNL1       -0.0043
@<TRIPOS>BOND
     1     2     3    1
     2     3     4   ar
     3     4     5   ar
     4     5     6   ar
     5     6     1    1
     6     1    16    1
     7    16    17    1
     8    17    18    1
     9    18    20    1
    10    20    21    1
    11    21    22    1
    12    22    23    1
    13    23    24   ar
    14    24    25   ar
    15    25    26   ar
    16    26    27   ar
    17    27    28   ar
    18     1     9    1
    19     9    10   ar
    20    10    11   ar
    21    11    12   ar
    22    12    13    1
    23    12    14   ar
    24    14    15   ar
    25     6     7   ar
    26     7     8   ar
    27     8     3   ar
    28    28    23   ar
    29    15     9   ar
    30    18    19    1
@<TRIPOS>MOLECULE
*****
 28 30 0 0 0
SMALL
GASTEIGER

@<TRIPOS>ATOM
      1 N         139.1717  140.0188  166.2556 N.pl3   1  UNL1       -0.2854
      2 F         143.2111  139.6241  170.6746 F       1  UNL1       -0.2042
      3 C         142.2012  139.7228  169.5699 C.ar    1  UNL1        0.1402
      4 C         140.7635  140.0053  169.8910 C.ar    1  UNL1        0.0309
      5 C         139.7537  140.1040  168.7862 C.ar    1  UNL1        0.0171
      6 C         140.1815  139.9201  167.3604 C.ar    1  UNL1        0.0518
      7 C         141.6192  139.6376  167.0393 C.ar    1  UNL1        0.0171
      8 C         142.6291  139.5389  168.1440 C.ar    1  UNL1        0.0309
      9 C         139.0371  141.2919  165.4740 C.ar    1  UNL1        0.0518
     10 C         138.1057  141.3563  164.2999 C.ar    1  UNL1        0.0171
     11 C         137.9712  142.6296  163.5183 C.ar    1  UNL1        0.0309
     12 C         138.7680  143.8383  163.9108 C.ar    1  UNL1        0.1402
     13 F         138.6334  145.1115  163.1291 F       1  UNL1       -0.2042
     14 C         139.6993  143.7739  165.0848 C.ar    1  UNL1        0.0309
     15 C         139.8339  142.5007  165.8665 C.ar    1  UNL1        0.0171
     16 C         138.2964  138.8443  165.9325 C.3     1  UNL1        0.1126
     17 C         138.8467  137.6934  165.1435 C.3     1  UNL1        0.0906
     18 N         138.9501  137.7892  163.6501 N.3     1  UNL1       -0.2960
     19 H         138.4466  138.6320  163.3735 H       1  UNL1        0.1233
     20 C         140.2976  137.8550  162.9944 C.3     1  UNL1        0.0689
     21 C         141.5404  137.8694  163.8341 C.3     1  UNL1        0.0218
     22 C         142.8438  138.3110  163.2372 C.3     1  UNL1        0.0278
     23 C         143.4103  139.6559  163.5845 C.ar    1  UNL1       -0.0221
     24 C         144.8930  139.8305  163.7294 C.ar    1  UNL1       -0.0043
     25 C         145.4594  141.1753  164.0766 C.ar    1  UNL1       -0.0003
     26 C         144.5432  142.3455  164.2789 C.ar    1  UNL1       -0.0000
     27 C         143.0605  142.1710  164.1340 C.ar    1  UNL1       -0.0003
     28 C         142.4940  140.8262  163.7868 C.ar    1  UNL1       -0.0043
@<TRIPOS>BOND
     1     2     3    1
     2     3     4   ar
     3     4     5   ar
     4     5     6   ar
     5     6     1    1
     6     1    16    1
     7    16    17    1
     8    17    18    1
     9    18    20    1
    10    20    21    1
    11    21    22    1
    12    22    23    1
    13    23    24   ar
    14    24    25   ar
    15    25    26   ar
    16    26    27   ar
    17    27    28   ar
    18     1     9    1
    19     9    10   ar
    20    10    11   ar
    21    11    12   ar
    22    12    13    1
    23    12    14   ar
    24    14    15   ar
    25     6     7   ar
    26     7     8   ar
    27     8     3   ar
    28    28    23   ar
    29    15     9   ar
    30    18    19    1
