@<TRIPOS>MOLECULE
*****
 34 36 0 0 0
SMALL
GASTEIGER

@<TRIPOS>ATOM
      1 C         143.0647  140.7806  162.9941 C.3     1  UNL1        0.0944
      2 N         142.4724  140.8669  164.3695 N.am    1  UNL1       -0.3005
      3 C         142.5011  139.6713  165.2748 C.2     1  UNL1        0.2474
      4 O         143.1219  138.3893  164.8048 O.2     1  UNL1       -0.2701
      5 H         142.0649  141.7084  164.6781 H       1  UNL1        0.1498
      6 C         141.9088  139.7577  166.6502 C.ar    1  UNL1        0.0725
      7 C         140.4799  140.1790  166.8264 C.ar    1  UNL1        0.0074
      8 C         139.8877  140.2654  168.2018 C.ar    1  UNL1        0.0174
      9 C         140.7242  139.9306  169.4010 C.ar    1  UNL1        0.0888
     10 N         142.1530  139.5093  169.2249 N.ar    1  UNL1       -0.2455
     11 C         142.7453  139.4229  167.8494 C.ar    1  UNL1        0.1030
     12 C         140.1319  140.0170  170.7764 C.3     1  UNL1        0.1878
     13 O         140.5726  141.1000  171.7161 O.3     1  UNL1       -0.3391
     14 C         141.3111  142.2949  171.1899 C.3     1  UNL1        0.2462
     15 C         140.6782  143.1686  170.1477 C.3     1  UNL1        0.4248
     16 F         140.0454  144.0422  169.1054 F       1  UNL1       -0.1674
     17 F         139.4387  143.2711  170.9862 F       1  UNL1       -0.1674
     18 F         141.9177  143.0660  169.3092 F       1  UNL1       -0.1674
     19 C         142.1950  140.4285  161.8238 C.3     1  UNL1        0.0500
     20 C         139.6219  140.5111  162.1733 C.ar    1  UNL1        0.0449
     21 C         138.3176  139.8040  162.3940 C.ar    1  UNL1        0.1414
     22 F         137.0487  140.5937  162.5229 F       1  UNL1       -0.2041
     23 C         138.2821  138.3072  162.4859 C.ar    1  UNL1        0.0320
     24 C         139.5508  137.5176  162.3570 C.ar    1  UNL1        0.0316
     25 C         140.8551  138.2247  162.1363 C.ar    1  UNL1        0.1364
     26 F         142.1240  137.4350  162.0075 F       1  UNL1       -0.2045
     27 C         140.8907  139.7214  162.0445 C.ar    1  UNL1        0.0107
     28 C         139.7641  146.4982  161.8059 C.3     1  UNL1        0.0538
     29 C         139.7285  145.0014  161.8977 C.ar    1  UNL1        0.0785
     30 C         140.0743  144.3208  163.1889 C.ar    1  UNL1        0.1135
     31 N         140.0387  142.8240  163.2808 N.ar    1  UNL1       -0.2410
     32 C         139.6574  142.0079  162.0814 C.ar    1  UNL1        0.1023
     33 C         139.3117  142.6885  160.7903 C.ar    1  UNL1        0.1176
     34 N         139.3472  144.1852  160.6984 N.ar    1  UNL1       -0.2450
@<TRIPOS>BOND
     1    28    29    1
     2    29    30   ar
     3    30    31   ar
     4    31    32   ar
     5    32    20    1
     6    20    21   ar
     7    21    22    1
     8    21    23   ar
     9    23    24   ar
    10    24    25   ar
    11    25    26    1
    12    25    27   ar
    13    27    19    1
    14    19     1    1
    15     1     2    1
    16     2     3   am
    17     3     4    2
    18     3     6    1
    19     6     7   ar
    20     7     8   ar
    21     8     9   ar
    22     9    12    1
    23    12    13    1
    24    13    14    1
    25    14    15    1
    26    15    16    1
    27    15    17    1
    28    15    18    1
    29     9    10   ar
    30    10    11   ar
    31    32    33   ar
    32    33    34   ar
    33    34    29   ar
    34    27    20   ar
    35    11     6   ar
    36     2     5    1
@<TRIPOS>MOLECULE
*****
 34 36 0 0 0
SMALL
GASTEIGER

@<TRIPOS>ATOM
      1 C         142.7801  141.3359  162.4267 C.3     1  UNL1        0.0944
      2 N         142.7530  140.9377  163.8727 N.am    1  UNL1       -0.3005
      3 C         143.0231  141.9594  164.9372 C.2     1  UNL1        0.2474
      4 O         143.3202  143.3794  164.5557 O.2     1  UNL1       -0.2701
      5 H         142.5580  140.0058  164.1231 H       1  UNL1        0.1498
      6 C         142.9960  141.5612  166.3831 C.ar    1  UNL1        0.0725
      7 C         143.3333  142.5663  167.4443 C.ar    1  UNL1        0.0074
      8 C         143.3062  142.1681  168.8902 C.ar    1  UNL1        0.0174
      9 C         142.9418  140.7649  169.2749 C.ar    1  UNL1        0.0888
     10 N         142.6046  139.7598  168.2138 N.ar    1  UNL1       -0.2455
     11 C         142.6317  140.1579  166.7678 C.ar    1  UNL1        0.1030
     12 C         142.9147  140.3667  170.7208 C.3     1  UNL1        0.1878
     13 O         141.7455  140.7446  171.5811 O.3     1  UNL1       -0.3391
     14 C         140.5774  141.4705  170.9823 C.3     1  UNL1        0.2462
     15 C         139.6125  140.7380  170.0977 C.3     1  UNL1        0.4248
     16 F         138.6476  140.0055  169.2131 F       1  UNL1       -0.1674
     17 F         139.5028  139.6467  171.1210 F       1  UNL1       -0.1674
     18 F         139.7222  141.8292  169.0744 F       1  UNL1       -0.1674
     19 C         141.4968  141.6090  161.6999 C.3     1  UNL1        0.0500
     20 C         139.7268  143.1230  162.8510 C.ar    1  UNL1        0.0449
     21 C         139.0527  144.4553  162.9941 C.ar    1  UNL1        0.1414
     22 F         137.9569  144.6370  164.0022 F       1  UNL1       -0.2041
     23 C         139.4744  145.6059  162.1291 C.ar    1  UNL1        0.0320
     24 C         140.5702  145.4243  161.1211 C.ar    1  UNL1        0.0316
     25 C         141.2443  144.0920  160.9780 C.ar    1  UNL1        0.1364
     26 F         142.3402  143.9103  159.9699 F       1  UNL1       -0.2045
     27 C         140.8226  142.9413  161.8430 C.ar    1  UNL1        0.0107
     28 C         138.0400  138.5204  166.3109 C.3     1  UNL1        0.0538
     29 C         138.4617  139.6710  165.4459 C.ar    1  UNL1        0.0785
     30 C         138.2253  139.6225  163.9655 C.ar    1  UNL1        0.1135
     31 N         138.6469  140.7732  163.1005 N.ar    1  UNL1       -0.2410
     32 C         139.3051  141.9723  163.7160 C.ar    1  UNL1        0.1023
     33 C         139.5416  142.0208  165.1964 C.ar    1  UNL1        0.1176
     34 N         139.1199  140.8701  166.0614 N.ar    1  UNL1       -0.2450
@<TRIPOS>BOND
     1    28    29    1
     2    29    30   ar
     3    30    31   ar
     4    31    32   ar
     5    32    20    1
     6    20    21   ar
     7    21    22    1
     8    21    23   ar
     9    23    24   ar
    10    24    25   ar
    11    25    26    1
    12    25    27   ar
    13    27    19    1
    14    19     1    1
    15     1     2    1
    16     2     3   am
    17     3     4    2
    18     3     6    1
    19     6     7   ar
    20     7     8   ar
    21     8     9   ar
    22     9    12    1
    23    12    13    1
    24    13    14    1
    25    14    15    1
    26    15    16    1
    27    15    17    1
    28    15    18    1
    29     9    10   ar
    30    10    11   ar
    31    32    33   ar
    32    33    34   ar
    33    34    29   ar
    34    27    20   ar
    35    11     6   ar
    36     2     5    1
@<TRIPOS>MOLECULE
*****
 34 36 0 0 0
SMALL
GASTEIGER

@<TRIPOS>ATOM
      1 C         140.2406  139.7794  161.9957 C.3     1  UNL1        0.0944
      2 N         140.5940  139.7953  163.4534 N.am    1  UNL1       -0.3005
      3 C         139.5149  139.6738  164.4882 C.2     1  UNL1        0.2474
      4 O         138.0823  139.5364  164.0652 O.2     1  UNL1       -0.2701
      5 H         141.5342  139.8855  163.7310 H       1  UNL1        0.1498
      6 C         139.8683  139.6896  165.9458 C.ar    1  UNL1        0.0725
      7 C         141.3026  139.8094  166.3685 C.ar    1  UNL1        0.0074
      8 C         141.6561  139.8253  167.8262 C.ar    1  UNL1        0.0174
      9 C         140.5753  139.7214  168.8612 C.ar    1  UNL1        0.0888
     10 N         139.1411  139.6016  168.4385 N.ar    1  UNL1       -0.2455
     11 C         138.7876  139.5858  166.9808 C.ar    1  UNL1        0.1030
     12 C         140.9288  139.7373  170.3188 C.3     1  UNL1        0.1878
     13 O         140.5098  140.8921  171.1797 O.3     1  UNL1       -0.3391
     14 C         141.2404  142.1989  171.0891 C.3     1  UNL1        0.2462
     15 C         140.6962  143.3048  170.2342 C.3     1  UNL1        0.4248
     16 F         140.1520  144.4107  169.3794 F       1  UNL1       -0.1674
     17 F         142.0463  143.9583  170.2201 F       1  UNL1       -0.1674
     18 F         139.3462  142.6513  170.2483 F       1  UNL1       -0.1674
     19 C         140.4360  141.0117  161.1631 C.3     1  UNL1        0.0500
     20 C         142.2192  142.7724  161.8491 C.ar    1  UNL1        0.0449
     21 C         143.5893  143.3624  161.6929 C.ar    1  UNL1        0.1414
     22 F         144.0023  144.5330  162.5350 F       1  UNL1       -0.2041
     23 C         144.5465  142.7819  160.6945 C.ar    1  UNL1        0.0320
     24 C         144.1336  141.6114  159.8524 C.ar    1  UNL1        0.0316
     25 C         142.7635  141.0213  160.0086 C.ar    1  UNL1        0.1364
     26 F         142.3505  139.8507  159.1664 F       1  UNL1       -0.2045
     27 C         141.8062  141.6018  161.0070 C.ar    1  UNL1        0.0107
     28 C         138.3902  145.0944  165.8426 C.3     1  UNL1        0.0538
     29 C         139.3475  144.5139  164.8442 C.ar    1  UNL1        0.0785
     30 C         140.2428  143.3764  165.2372 C.ar    1  UNL1        0.1135
     31 N         141.2000  142.7959  164.2388 N.ar    1  UNL1       -0.2410
     32 C         141.2619  143.3529  162.8475 C.ar    1  UNL1        0.1023
     33 C         140.3666  144.4904  162.4545 C.ar    1  UNL1        0.1176
     34 N         139.4094  145.0709  163.4529 N.ar    1  UNL1       -0.2450
@<TRIPOS>BOND
     1    28    29    1
     2    29    30   ar
     3    30    31   ar
     4    31    32   ar
     5    32    20    1
     6    20    21   ar
     7    21    22    1
     8    21    23   ar
     9    23    24   ar
    10    24    25   ar
    11    25    26    1
    12    25    27   ar
    13    27    19    1
    14    19     1    1
    15     1     2    1
    16     2     3   am
    17     3     4    2
    18     3     6    1
    19     6     7   ar
    20     7     8   ar
    21     8     9   ar
    22     9    12    1
    23    12    13    1
    24    13    14    1
    25    14    15    1
    26    15    16    1
    27    15    17    1
    28    15    18    1
    29     9    10   ar
    30    10    11   ar
    31    32    33   ar
    32    33    34   ar
    33    34    29   ar
    34    27    20   ar
    35    11     6   ar
    36     2     5    1
@<TRIPOS>MOLECULE
*****
 34 36 0 0 0
SMALL
GASTEIGER

@<TRIPOS>ATOM
      1 C         143.9026  138.9925  162.6050 C.3     1  UNL1        0.0944
      2 N         143.8941  139.2097  164.0893 N.am    1  UNL1       -0.3005
      3 C         142.9148  140.1666  164.7017 C.2     1  UNL1        0.2474
      4 O         141.9438  140.9064  163.8300 O.2     1  UNL1       -0.2701
      5 H         144.5314  138.7241  164.6614 H       1  UNL1        0.1498
      6 C         142.9064  140.3837  166.1859 C.ar    1  UNL1        0.0725
      7 C         142.9551  141.7766  166.7404 C.ar    1  UNL1        0.0074
      8 C         142.9467  141.9937  168.2246 C.ar    1  UNL1        0.0174
      9 C         142.8896  140.8179  169.1542 C.ar    1  UNL1        0.0888
     10 N         142.8409  139.4250  168.5998 N.ar    1  UNL1       -0.2455
     11 C         142.8493  139.2079  167.1155 C.ar    1  UNL1        0.1030
     12 C         142.8812  141.0350  170.6384 C.3     1  UNL1        0.1878
     13 O         141.6041  140.8862  171.4110 O.3     1  UNL1       -0.3391
     14 C         140.3327  141.4786  170.8795 C.3     1  UNL1        0.2462
     15 C         139.4657  140.6828  169.9494 C.3     1  UNL1        0.4248
     16 F         138.5989  139.8869  169.0193 F       1  UNL1       -0.1674
     17 F         139.6730  141.7106  168.8767 F       1  UNL1       -0.1674
     18 F         139.2585  139.6549  171.0220 F       1  UNL1       -0.1674
     19 C         143.1278  137.8548  162.0091 C.3     1  UNL1        0.0500
     20 C         141.0155  138.4603  160.6229 C.ar    1  UNL1        0.0449
     21 C         139.5232  138.5511  160.5019 C.ar    1  UNL1        0.1414
     22 F         138.9031  139.0659  159.2367 F       1  UNL1       -0.2041
     23 C         138.6508  138.1272  161.6462 C.ar    1  UNL1        0.0320
     24 C         139.2707  137.6125  162.9113 C.ar    1  UNL1        0.0316
     25 C         140.7630  137.5217  163.0323 C.ar    1  UNL1        0.1364
     26 F         141.3830  137.0069  164.2975 F       1  UNL1       -0.2045
     27 C         141.6354  137.9456  161.8881 C.ar    1  UNL1        0.0107
     28 C         144.5051  140.1560  156.0461 C.3     1  UNL1        0.0538
     29 C         143.6327  139.7321  157.1903 C.ar    1  UNL1        0.0785
     30 C         143.1520  140.7482  158.1835 C.ar    1  UNL1        0.1135
     31 N         142.2796  140.3243  159.3277 N.ar    1  UNL1       -0.2410
     32 C         141.8879  138.8842  159.4787 C.ar    1  UNL1        0.1023
     33 C         142.3685  137.8682  158.4855 C.ar    1  UNL1        0.1176
     34 N         143.2409  138.2921  157.3413 N.ar    1  UNL1       -0.2450
@<TRIPOS>BOND
     1    28    29    1
     2    29    30   ar
     3    30    31   ar
     4    31    32   ar
     5    32    20    1
     6    20    21   ar
     7    21    22    1
     8    21    23   ar
     9    23    24   ar
    10    24    25   ar
    11    25    26    1
    12    25    27   ar
    13    27    19    1
    14    19     1    1
    15     1     2    1
    16     2     3   am
    17     3     4    2
    18     3     6    1
    19     6     7   ar
    20     7     8   ar
    21     8     9   ar
    22     9    12    1
    23    12    13    1
    24    13    14    1
    25    14    15    1
    26    15    16    1
    27    15    17    1
    28    15    18    1
    29     9    10   ar
    30    10    11   ar
    31    32    33   ar
    32    33    34   ar
    33    34    29   ar
    34    27    20   ar
    35    11     6   ar
    36     2     5    1
@<TRIPOS>MOLECULE
*****
 34 36 0 0 0
SMALL
GASTEIGER

@<TRIPOS>ATOM
      1 C         140.7754  139.6764  162.8082 C.3     1  UNL1        0.0944
      2 N         139.9597  139.6977  164.0669 N.am    1  UNL1       -0.3005
      3 C         140.6006  139.3649  165.3816 C.2     1  UNL1        0.2474
      4 O         142.0572  139.0108  165.4377 O.2     1  UNL1       -0.2701
      5 H         139.0038  139.9301  164.0302 H       1  UNL1        0.1498
      6 C         139.7850  139.3861  166.6403 C.ar    1  UNL1        0.0725
      7 C         140.3153  140.0687  167.8662 C.ar    1  UNL1        0.0074
      8 C         139.4997  140.0900  169.1249 C.ar    1  UNL1        0.0174
      9 C         138.1537  139.4287  169.1577 C.ar    1  UNL1        0.0888
     10 N         137.6234  138.7461  167.9318 N.ar    1  UNL1       -0.2455
     11 C         138.4391  138.7248  166.6731 C.ar    1  UNL1        0.1030
     12 C         137.3381  139.4500  170.4163 C.3     1  UNL1        0.1878
     13 O         136.5024  138.2612  170.7887 O.3     1  UNL1       -0.3391
     14 C         135.8168  138.2145  172.1220 C.3     1  UNL1        0.2462
     15 C         135.7863  136.9356  172.9053 C.3     1  UNL1        0.4248
     16 F         135.7559  135.6567  173.6886 F       1  UNL1       -0.1674
     17 F         134.3531  137.1910  173.2667 F       1  UNL1       -0.1674
     18 F         137.2195  136.6801  172.5439 F       1  UNL1       -0.1674
     19 C         141.4517  140.9275  162.3316 C.3     1  UNL1        0.0500
     20 C         142.9068  142.3900  163.9108 C.ar    1  UNL1        0.0449
     21 C         144.2510  142.7705  164.4570 C.ar    1  UNL1        0.1414
     22 F         144.3619  143.8524  165.4901 F       1  UNL1       -0.2041
     23 C         145.4843  142.0693  163.9700 C.ar    1  UNL1        0.0320
     24 C         145.3735  140.9875  162.9369 C.ar    1  UNL1        0.0316
     25 C         144.0293  140.6069  162.3908 C.ar    1  UNL1        0.1364
     26 F         143.9184  139.5250  161.3576 F       1  UNL1       -0.2045
     27 C         142.7960  141.3081  162.8777 C.ar    1  UNL1        0.0107
     28 C         137.9735  145.1949  165.8587 C.3     1  UNL1        0.0538
     29 C         139.2068  144.4937  165.3718 C.ar    1  UNL1        0.0785
     30 C         139.7594  143.3289  166.1384 C.ar    1  UNL1        0.1135
     31 N         140.9928  142.6277  165.6515 N.ar    1  UNL1       -0.2410
     32 C         141.6735  143.0912  164.3978 C.ar    1  UNL1        0.1023
     33 C         141.1209  144.2560  163.6311 C.ar    1  UNL1        0.1176
     34 N         139.8875  144.9572  164.1181 N.ar    1  UNL1       -0.2450
@<TRIPOS>BOND
     1    28    29    1
     2    29    30   ar
     3    30    31   ar
     4    31    32   ar
     5    32    20    1
     6    20    21   ar
     7    21    22    1
     8    21    23   ar
     9    23    24   ar
    10    24    25   ar
    11    25    26    1
    12    25    27   ar
    13    27    19    1
    14    19     1    1
    15     1     2    1
    16     2     3   am
    17     3     4    2
    18     3     6    1
    19     6     7   ar
    20     7     8   ar
    21     8     9   ar
    22     9    12    1
    23    12    13    1
    24    13    14    1
    25    14    15    1
    26    15    16    1
    27    15    17    1
    28    15    18    1
    29     9    10   ar
    30    10    11   ar
    31    32    33   ar
    32    33    34   ar
    33    34    29   ar
    34    27    20   ar
    35    11     6   ar
    36     2     5    1
@<TRIPOS>MOLECULE
*****
 34 36 0 0 0
SMALL
GASTEIGER

@<TRIPOS>ATOM
      1 C         140.0707  139.9703  161.9945 C.3     1  UNL1        0.0944
      2 N         140.6097  140.0294  163.3931 N.am    1  UNL1       -0.3005
      3 C         139.7676  139.5591  164.5419 C.2     1  UNL1        0.2474
      4 O         138.3865  139.0297  164.2921 O.2     1  UNL1       -0.2701
      5 H         141.5161  140.3768  163.5571 H       1  UNL1        0.1498
      6 C         140.3066  139.6182  165.9404 C.ar    1  UNL1        0.0725
      7 C         139.3811  139.8859  167.0902 C.ar    1  UNL1        0.0074
      8 C         139.9201  139.9450  168.4888 C.ar    1  UNL1        0.0174
      9 C         141.3846  139.7364  168.7376 C.ar    1  UNL1        0.0888
     10 N         142.3100  139.4687  167.5879 N.ar    1  UNL1       -0.2455
     11 C         141.7710  139.4096  166.1893 C.ar    1  UNL1        0.1030
     12 C         141.9236  139.7954  170.1361 C.3     1  UNL1        0.1878
     13 O         142.2802  141.1181  170.7472 O.3     1  UNL1       -0.3391
     14 C         141.1971  142.0722  171.1554 C.3     1  UNL1        0.2462
     15 C         140.6683  143.0724  170.1705 C.3     1  UNL1        0.4248
     16 F         140.1396  144.0726  169.1857 F       1  UNL1       -0.1674
     17 F         139.2669  142.6358  170.4794 F       1  UNL1       -0.1674
     18 F         142.0697  143.5090  169.8616 F       1  UNL1       -0.1674
     19 C         139.2994  141.1304  161.4384 C.3     1  UNL1        0.0500
     20 C         140.2449  143.4565  162.1057 C.ar    1  UNL1        0.0449
     21 C         140.1306  144.7278  162.8934 C.ar    1  UNL1        0.1414
     22 F         141.1905  145.7826  162.7731 F       1  UNL1       -0.2041
     23 C         138.9565  144.9446  163.8014 C.ar    1  UNL1        0.0320
     24 C         137.8967  143.8900  163.9218 C.ar    1  UNL1        0.0316
     25 C         138.0110  142.6186  163.1341 C.ar    1  UNL1        0.1364
     26 F         136.9512  141.5639  163.2544 F       1  UNL1       -0.2045
     27 C         139.1851  142.4018  162.2261 C.ar    1  UNL1        0.0107
     28 C         144.9414  142.5894  158.4737 C.3     1  UNL1        0.0538
     29 C         143.7672  142.8062  159.3817 C.ar    1  UNL1        0.0785
     30 C         142.4895  143.3696  158.8340 C.ar    1  UNL1        0.1135
     31 N         141.3154  143.5863  159.7420 N.ar    1  UNL1       -0.2410
     32 C         141.4190  143.2397  161.1977 C.ar    1  UNL1        0.1023
     33 C         142.6967  142.6763  161.7454 C.ar    1  UNL1        0.1176
     34 N         143.8709  142.4596  160.8374 N.ar    1  UNL1       -0.2450
@<TRIPOS>BOND
     1    28    29    1
     2    29    30   ar
     3    30    31   ar
     4    31    32   ar
     5    32    20    1
     6    20    21   ar
     7    21    22    1
     8    21    23   ar
     9    23    24   ar
    10    24    25   ar
    11    25    26    1
    12    25    27   ar
    13    27    19    1
    14    19     1    1
    15     1     2    1
    16     2     3   am
    17     3     4    2
    18     3     6    1
    19     6     7   ar
    20     7     8   ar
    21     8     9   ar
    22     9    12    1
    23    12    13    1
    24    13    14    1
    25    14    15    1
    26    15    16    1
    27    15    17    1
    28    15    18    1
    29     9    10   ar
    30    10    11   ar
    31    32    33   ar
    32    33    34   ar
    33    34    29   ar
    34    27    20   ar
    35    11     6   ar
    36     2     5    1
@<TRIPOS>MOLECULE
*****
 34 36 0 0 0
SMALL
GASTEIGER

@<TRIPOS>ATOM
      1 C         145.3650  142.5112  164.3258 C.3     1  UNL1        0.0944
      2 N         144.7929  141.8624  163.1003 N.am    1  UNL1       -0.3005
      3 C         144.6516  140.3704  163.0381 C.2     1  UNL1        0.2474
      4 O         145.0825  139.5271  164.2014 O.2     1  UNL1       -0.2701
      5 H         144.5101  142.4158  162.3368 H       1  UNL1        0.1498
      6 C         144.0795  139.7217  161.8126 C.ar    1  UNL1        0.0725
      7 C         143.8151  138.2452  161.7996 C.ar    1  UNL1        0.0074
      8 C         143.2429  137.5965  160.5742 C.ar    1  UNL1        0.0174
      9 C         142.9352  138.4242  159.3617 C.ar    1  UNL1        0.0888
     10 N         143.1996  139.9006  159.3746 N.ar    1  UNL1       -0.2455
     11 C         143.7718  140.5494  160.6001 C.ar    1  UNL1        0.1030
     12 C         142.3631  137.7755  158.1362 C.3     1  UNL1        0.1878
     13 O         143.2702  137.0910  157.1570 O.3     1  UNL1       -0.3391
     14 C         143.0896  135.6317  156.8609 C.3     1  UNL1        0.2462
     15 C         143.0293  135.1567  155.4393 C.3     1  UNL1        0.4248
     16 F         142.9690  134.6817  154.0178 F       1  UNL1       -0.1674
     17 F         141.6301  134.6646  155.6631 F       1  UNL1       -0.1674
     18 F         144.4284  135.6488  155.2155 F       1  UNL1       -0.1674
     19 C         144.4724  143.2823  165.2523 C.3     1  UNL1        0.0500
     20 C         141.8966  142.9935  165.4317 C.ar    1  UNL1        0.0449
     21 C         140.5132  143.3751  164.9954 C.ar    1  UNL1        0.1414
     22 F         139.3209  142.7047  165.6110 F       1  UNL1       -0.2041
     23 C         140.3220  144.4271  163.9434 C.ar    1  UNL1        0.0320
     24 C         141.5142  145.0976  163.3277 C.ar    1  UNL1        0.0316
     25 C         142.8977  144.7159  163.7641 C.ar    1  UNL1        0.1364
     26 F         144.0900  145.3864  163.1484 F       1  UNL1       -0.2045
     27 C         143.0889  143.6639  164.8160 C.ar    1  UNL1        0.0107
     28 C         142.6615  138.7853  169.6396 C.3     1  UNL1        0.0538
     29 C         142.4703  139.8374  168.5876 C.ar    1  UNL1        0.0785
     30 C         142.3833  141.2826  168.9794 C.ar    1  UNL1        0.1135
     31 N         142.1921  142.3347  167.9274 N.ar    1  UNL1       -0.2410
     32 C         142.0879  141.9414  166.4837 C.ar    1  UNL1        0.1023
     33 C         142.1748  140.4962  166.0919 C.ar    1  UNL1        0.1176
     34 N         142.3660  139.4441  167.1439 N.ar    1  UNL1       -0.2450
@<TRIPOS>BOND
     1    28    29    1
     2    29    30   ar
     3    30    31   ar
     4    31    32   ar
     5    32    20    1
     6    20    21   ar
     7    21    22    1
     8    21    23   ar
     9    23    24   ar
    10    24    25   ar
    11    25    26    1
    12    25    27   ar
    13    27    19    1
    14    19     1    1
    15     1     2    1
    16     2     3   am
    17     3     4    2
    18     3     6    1
    19     6     7   ar
    20     7     8   ar
    21     8     9   ar
    22     9    12    1
    23    12    13    1
    24    13    14    1
    25    14    15    1
    26    15    16    1
    27    15    17    1
    28    15    18    1
    29     9    10   ar
    30    10    11   ar
    31    32    33   ar
    32    33    34   ar
    33    34    29   ar
    34    27    20   ar
    35    11     6   ar
    36     2     5    1
@<TRIPOS>MOLECULE
*****
 34 36 0 0 0
SMALL
GASTEIGER

@<TRIPOS>ATOM
      1 C         138.1591  138.5729  161.8572 C.3     1  UNL1        0.0944
      2 N         138.2747  139.0601  163.2712 N.am    1  UNL1       -0.3005
      3 C         139.2847  138.4473  164.1954 C.2     1  UNL1        0.2474
      4 O         140.1792  137.3472  163.7057 O.2     1  UNL1       -0.2701
      5 H         137.6876  139.7821  163.5926 H       1  UNL1        0.1498
      6 C         139.4003  138.9345  165.6093 C.ar    1  UNL1        0.0725
      7 C         140.6750  139.5679  166.0826 C.ar    1  UNL1        0.0074
      8 C         140.7906  140.0551  167.4965 C.ar    1  UNL1        0.0174
      9 C         139.6314  139.9090  168.4372 C.ar    1  UNL1        0.0888
     10 N         138.3567  139.2756  167.9641 N.ar    1  UNL1       -0.2455
     11 C         138.2411  138.7884  166.5501 C.ar    1  UNL1        0.1030
     12 C         139.7469  140.3962  169.8512 C.3     1  UNL1        0.1878
     13 O         141.0784  140.3849  170.5419 O.3     1  UNL1       -0.3391
     14 C         141.7788  141.6770  170.8417 C.3     1  UNL1        0.2462
     15 C         142.9377  142.1157  169.9963 C.3     1  UNL1        0.4248
     16 F         144.0965  142.5543  169.1510 F       1  UNL1       -0.1674
     17 F         142.5173  143.5460  170.1621 F       1  UNL1       -0.1674
     18 F         143.3581  140.6854  169.8306 F       1  UNL1       -0.1674
     19 C         138.1876  139.5525  160.7217 C.3     1  UNL1        0.0500
     20 C         140.2010  141.1897  160.5959 C.ar    1  UNL1        0.0449
     21 C         141.5107  141.5936  159.9864 C.ar    1  UNL1        0.1414
     22 F         142.2144  142.8270  160.4701 F       1  UNL1       -0.2041
     23 C         142.1168  140.7643  158.8934 C.ar    1  UNL1        0.0320
     24 C         141.4132  139.5310  158.4098 C.ar    1  UNL1        0.0316
     25 C         140.1035  139.1271  159.0192 C.ar    1  UNL1        0.1364
     26 F         139.3998  137.8938  158.5356 F       1  UNL1       -0.2045
     27 C         139.4974  139.9565  160.1122 C.ar    1  UNL1        0.0107
     28 C         137.7765  144.5072  164.9681 C.3     1  UNL1        0.0538
     29 C         138.3826  143.6778  163.8750 C.ar    1  UNL1        0.0785
     30 C         139.3802  142.6090  164.2100 C.ar    1  UNL1        0.1135
     31 N         139.9863  141.7796  163.1170 N.ar    1  UNL1       -0.2410
     32 C         139.5949  142.0191  161.6889 C.ar    1  UNL1        0.1023
     33 C         138.5973  143.0880  161.3539 C.ar    1  UNL1        0.1176
     34 N         137.9912  143.9174  162.4470 N.ar    1  UNL1       -0.2450
@<TRIPOS>BOND
     1    28    29    1
     2    29    30   ar
     3    30    31   ar
     4    31    32   ar
     5    32    20    1
     6    20    21   ar
     7    21    22    1
     8    21    23   ar
     9    23    24   ar
    10    24    25   ar
    11    25    26    1
    12    25    27   ar
    13    27    19    1
    14    19     1    1
    15     1     2    1
    16     2     3   am
    17     3     4    2
    18     3     6    1
    19     6     7   ar
    20     7     8   ar
    21     8     9   ar
    22     9    12    1
    23    12    13    1
    24    13    14    1
    25    14    15    1
    26    15    16    1
    27    15    17    1
    28    15    18    1
    29     9    10   ar
    30    10    11   ar
    31    32    33   ar
    32    33    34   ar
    33    34    29   ar
    34    27    20   ar
    35    11     6   ar
    36     2     5    1
@<TRIPOS>MOLECULE
*****
 34 36 0 0 0
SMALL
GASTEIGER

@<TRIPOS>ATOM
      1 C         140.5321  140.2138  162.3101 C.3     1  UNL1        0.0944
      2 N         140.3597  140.8085  163.6764 N.am    1  UNL1       -0.3005
      3 C         140.3784  139.9236  164.8874 C.2     1  UNL1        0.2474
      4 O         140.5694  138.4440  164.7322 O.2     1  UNL1       -0.2701
      5 H         140.2344  141.7797  163.7783 H       1  UNL1        0.1498
      6 C         140.2060  140.5184  166.2536 C.ar    1  UNL1        0.0725
      7 C         139.5737  139.7115  167.3486 C.ar    1  UNL1        0.0074
      8 C         139.4014  140.3063  168.7148 C.ar    1  UNL1        0.0174
      9 C         139.8613  141.7080  168.9860 C.ar    1  UNL1        0.0888
     10 N         140.4937  142.5149  167.8911 N.ar    1  UNL1       -0.2455
     11 C         140.6660  141.9202  166.5248 C.ar    1  UNL1        0.1030
     12 C         139.6890  142.3028  170.3522 C.3     1  UNL1        0.1878
     13 O         140.8919  142.6050  171.1958 O.3     1  UNL1       -0.3391
     14 C         142.1156  141.7437  171.0931 C.3     1  UNL1        0.2462
     15 C         143.2714  142.1811  170.2428 C.3     1  UNL1        0.4248
     16 F         144.4272  142.6184  169.3925 F       1  UNL1       -0.1674
     17 F         142.7812  143.5973  170.3049 F       1  UNL1       -0.1674
     18 F         143.7616  140.7648  170.1807 F       1  UNL1       -0.1674
     19 C         141.8793  140.2269  161.6509 C.3     1  UNL1        0.0500
     20 C         143.4420  142.2455  162.1341 C.ar    1  UNL1        0.0449
     21 C         144.6218  142.8327  162.8505 C.ar    1  UNL1        0.1414
     22 F         145.0047  144.2641  162.6172 F       1  UNL1       -0.2041
     23 C         145.4188  141.9884  163.8002 C.ar    1  UNL1        0.0320
     24 C         145.0360  140.5570  164.0335 C.ar    1  UNL1        0.0316
     25 C         143.8562  139.9698  163.3171 C.ar    1  UNL1        0.1364
     26 F         143.4733  138.5383  163.5503 F       1  UNL1       -0.2045
     27 C         143.0592  140.8141  162.3674 C.ar    1  UNL1        0.0107
     28 C         140.2540  145.6227  158.3352 C.3     1  UNL1        0.0538
     29 C         141.0510  144.7784  159.2849 C.ar    1  UNL1        0.0785
     30 C         142.2060  143.9664  158.7783 C.ar    1  UNL1        0.1135
     31 N         143.0029  143.1221  159.7281 N.ar    1  UNL1       -0.2410
     32 C         142.6450  143.0898  161.1843 C.ar    1  UNL1        0.1023
     33 C         141.4901  143.9019  161.6909 C.ar    1  UNL1        0.1176
     34 N         140.6931  144.7462  160.7412 N.ar    1  UNL1       -0.2450
@<TRIPOS>BOND
     1    28    29    1
     2    29    30   ar
     3    30    31   ar
     4    31    32   ar
     5    32    20    1
     6    20    21   ar
     7    21    22    1
     8    21    23   ar
     9    23    24   ar
    10    24    25   ar
    11    25    26    1
    12    25    27   ar
    13    27    19    1
    14    19     1    1
    15     1     2    1
    16     2     3   am
    17     3     4    2
    18     3     6    1
    19     6     7   ar
    20     7     8   ar
    21     8     9   ar
    22     9    12    1
    23    12    13    1
    24    13    14    1
    25    14    15    1
    26    15    16    1
    27    15    17    1
    28    15    18    1
    29     9    10   ar
    30    10    11   ar
    31    32    33   ar
    32    33    34   ar
    33    34    29   ar
    34    27    20   ar
    35    11     6   ar
    36     2     5    1
