@<TRIPOS>MOLECULE
*****
 37 41 0 0 0
SMALL
GASTEIGER

@<TRIPOS>ATOM
      1 C         140.9029  141.6753  165.7839 C.3     1  UNL1        0.0761
      2 C         139.9869  143.8533  164.7035 C.ar    1  UNL1        0.1351
      3 C         139.8837  144.7746  163.5243 C.ar    1  UNL1        0.0366
      4 C         140.5933  144.4391  162.2460 C.ar    1  UNL1        0.0030
      5 C         140.4901  145.3603  161.0668 C.ar    1  UNL1        0.0006
      6 C         141.1998  145.0248  159.7886 C.ar    1  UNL1        0.0067
      7 C         142.0127  143.7680  159.6897 C.ar    1  UNL1        0.0346
      8 BR        142.7223  143.4325  158.4114 Br      1  UNL1       -0.0490
      9 C         142.1159  142.8468  160.8689 C.ar    1  UNL1        0.0067
     10 C         141.4062  143.1823  162.1471 C.ar    1  UNL1        0.0004
     11 C         141.5094  142.2611  163.3264 C.ar    1  UNL1       -0.0009
     12 C         140.7997  142.5966  164.6046 C.ar    1  UNL1        0.0181
     13 C         138.1613  145.1912  165.9792 C.3     1  UNL1        0.2525
     14 O         139.2772  144.1888  165.9818 O.3     1  UNL1       -0.4717
     15 C         139.9597  140.5164  165.9150 C.ar    1  UNL1       -0.0157
     16 C         139.3281  140.2097  167.2405 C.ar    1  UNL1       -0.0039
     17 C         138.3849  139.0508  167.3717 C.ar    1  UNL1       -0.0003
     18 C         138.0731  138.1986  166.1773 C.ar    1  UNL1       -0.0000
     19 C         138.7047  138.5053  164.8517 C.ar    1  UNL1       -0.0003
     20 C         139.6479  139.6642  164.7206 C.ar    1  UNL1       -0.0039
     21 C         141.9493  141.9130  166.8319 C.3     1  UNL1        0.1186
     22 O         141.0179  142.8433  167.5509 O.3     1  UNL1       -0.3819
     23 H         141.5160  143.6063  167.8836 H       1  UNL1        0.2107
     24 C         142.8807  140.9827  166.1130 C.ar    1  UNL1        0.0369
     25 C         142.8052  139.5054  166.3621 C.ar    1  UNL1        0.0010
     26 C         143.7367  138.5750  165.6431 C.ar    1  UNL1       -0.0000
     27 C         144.7436  139.1219  164.6751 C.ar    1  UNL1        0.0031
     28 C         144.8191  140.5991  164.4260 C.ar    1  UNL1        0.0375
     29 C         145.7012  141.4231  163.5356 C.ar    1  UNL1        0.0437
     30 C         145.3150  142.8627  163.7042 C.ar    1  UNL1        0.1796
     31 O         144.1942  142.9285  164.6989 O.2     1  UNL1       -0.4507
     32 C         143.8876  141.5296  165.1450 C.ar    1  UNL1        0.1436
     33 C         142.9957  142.1507  167.8800 C.3     1  UNL1        0.0492
     34 C         142.5883  142.4523  169.2918 C.3     1  UNL1        0.0750
     35 N         141.9624  141.3824  170.1366 N.3     1  UNL1       -0.2702
     36 C         140.8120  141.7167  171.0393 C.3     1  UNL1        0.0897
     37 C         142.4869  139.9784  170.0788 C.3     1  UNL1        0.0897
@<TRIPOS>BOND
     1    13    14    1
     2    14     2    1
     3     2     3   ar
     4     3     4   ar
     5     4     5   ar
     6     5     6   ar
     7     6     7   ar
     8     7     8    1
     9     7     9   ar
    10     9    10   ar
    11    10    11   ar
    12    11    12   ar
    13     1    12    1
    14     1    15    1
    15    15    16   ar
    16    16    17   ar
    17    17    18   ar
    18    18    19   ar
    19    19    20   ar
    20     1    21    1
    21    21    22    1
    22    21    33    1
    23    33    34    1
    24    34    35    1
    25    35    36    1
    26    35    37    1
    27    21    24    1
    28    24    25   ar
    29    25    26   ar
    30    26    27   ar
    31    27    28   ar
    32    28    29   ar
    33    29    30   ar
    34    30    31   ar
    35    31    32   ar
    36    12     2   ar
    37    20    15   ar
    38    32    24   ar
    39    10     4   ar
    40    32    28   ar
    41    22    23    1
@<TRIPOS>MOLECULE
*****
 37 41 0 0 0
SMALL
GASTEIGER

@<TRIPOS>ATOM
      1 C         141.0637  140.3027  165.1712 C.3     1  UNL1        0.0761
      2 C         142.6517  139.8270  163.1706 C.ar    1  UNL1        0.1351
      3 C         142.9572  139.9166  161.7048 C.ar    1  UNL1        0.0366
      4 C         141.9804  140.5713  160.7736 C.ar    1  UNL1        0.0030
      5 C         142.2859  140.6609  159.3079 C.ar    1  UNL1        0.0006
      6 C         141.3091  141.3156  158.3768 C.ar    1  UNL1        0.0067
      7 C         140.0266  141.8808  158.9114 C.ar    1  UNL1        0.0346
      8 BR        139.0497  142.5356  157.9802 Br      1  UNL1       -0.0490
      9 C         139.7210  141.7913  160.3772 C.ar    1  UNL1        0.0067
     10 C         140.6979  141.1365  161.3083 C.ar    1  UNL1        0.0004
     11 C         140.3924  141.0470  162.7742 C.ar    1  UNL1       -0.0009
     12 C         141.3692  140.3922  163.7053 C.ar    1  UNL1        0.0181
     13 C         145.0029  139.7482  164.2731 C.3     1  UNL1        0.2525
     14 O         143.6285  139.1723  164.1018 O.3     1  UNL1       -0.4717
     15 C         139.9566  139.4128  165.6535 C.ar    1  UNL1       -0.0157
     16 C         139.6916  138.1060  164.9667 C.ar    1  UNL1       -0.0039
     17 C         138.5846  137.2161  165.4490 C.ar    1  UNL1       -0.0003
     18 C         137.7425  137.6332  166.6182 C.ar    1  UNL1       -0.0000
     19 C         138.0075  138.9401  167.3051 C.ar    1  UNL1       -0.0003
     20 C         139.1146  139.8299  166.8227 C.ar    1  UNL1       -0.0039
     21 C         141.8651  141.1029  166.1546 C.3     1  UNL1        0.1186
     22 O         142.3940  139.8345  166.7557 O.3     1  UNL1       -0.3819
     23 H         142.4312  139.9250  167.7208 H       1  UNL1        0.2107
     24 C         141.3362  142.3713  165.5535 C.ar    1  UNL1        0.0369
     25 C         139.9260  142.8014  165.8302 C.ar    1  UNL1        0.0010
     26 C         139.3971  144.0698  165.2291 C.ar    1  UNL1       -0.0000
     27 C         140.2783  144.9082  164.3513 C.ar    1  UNL1        0.0031
     28 C         141.6884  144.4782  164.0746 C.ar    1  UNL1        0.0375
     29 C         142.7832  145.0944  163.2550 C.ar    1  UNL1        0.0437
     30 C         143.9887  144.2068  163.3495 C.ar    1  UNL1        0.1796
     31 O         143.6390  143.0421  164.2275 O.2     1  UNL1       -0.4507
     32 C         142.2174  143.2098  164.6757 C.ar    1  UNL1        0.1436
     33 C         142.6666  141.9032  167.1380 C.3     1  UNL1        0.0492
     34 C         142.7118  141.4919  168.5798 C.3     1  UNL1        0.0750
     35 N         141.4361  141.2534  169.3321 N.3     1  UNL1       -0.2702
     36 C         141.1844  139.9237  169.9792 C.3     1  UNL1        0.0897
     37 C         140.4121  142.3444  169.4371 C.3     1  UNL1        0.0897
@<TRIPOS>BOND
     1    13    14    1
     2    14     2    1
     3     2     3   ar
     4     3     4   ar
     5     4     5   ar
     6     5     6   ar
     7     6     7   ar
     8     7     8    1
     9     7     9   ar
    10     9    10   ar
    11    10    11   ar
    12    11    12   ar
    13     1    12    1
    14     1    15    1
    15    15    16   ar
    16    16    17   ar
    17    17    18   ar
    18    18    19   ar
    19    19    20   ar
    20     1    21    1
    21    21    22    1
    22    21    33    1
    23    33    34    1
    24    34    35    1
    25    35    36    1
    26    35    37    1
    27    21    24    1
    28    24    25   ar
    29    25    26   ar
    30    26    27   ar
    31    27    28   ar
    32    28    29   ar
    33    29    30   ar
    34    30    31   ar
    35    31    32   ar
    36    12     2   ar
    37    20    15   ar
    38    32    24   ar
    39    10     4   ar
    40    32    28   ar
    41    22    23    1
@<TRIPOS>MOLECULE
*****
 37 41 0 0 0
SMALL
GASTEIGER

@<TRIPOS>ATOM
      1 C         141.4652  140.4931  165.9052 C.3     1  UNL1        0.0761
      2 C         143.4480  139.4564  164.5848 C.ar    1  UNL1        0.1351
      3 C         144.0960  139.1037  163.2788 C.ar    1  UNL1        0.0366
      4 C         143.4091  139.4349  161.9871 C.ar    1  UNL1        0.0030
      5 C         144.0571  139.0822  160.6811 C.ar    1  UNL1        0.0006
      6 C         143.3702  139.4135  159.3894 C.ar    1  UNL1        0.0067
      7 C         142.0353  140.0975  159.4038 C.ar    1  UNL1        0.0346
      8 BR        141.3484  140.4288  158.1120 Br      1  UNL1       -0.0490
      9 C         141.3873  140.4502  160.7098 C.ar    1  UNL1        0.0067
     10 C         142.0742  140.1189  162.0014 C.ar    1  UNL1        0.0004
     11 C         141.4262  140.4717  163.3075 C.ar    1  UNL1       -0.0009
     12 C         142.1131  140.1404  164.5991 C.ar    1  UNL1        0.0181
     13 C         143.9258  137.7838  166.5146 C.3     1  UNL1        0.2525
     14 O         144.1349  139.1251  165.8765 O.3     1  UNL1       -0.4717
     15 C         140.2032  139.8009  166.3274 C.ar    1  UNL1       -0.0157
     16 C         139.5760  140.1262  167.6505 C.ar    1  UNL1       -0.0039
     17 C         138.3140  139.4339  168.0728 C.ar    1  UNL1       -0.0003
     18 C         137.6794  138.4163  167.1719 C.ar    1  UNL1       -0.0000
     19 C         138.3066  138.0909  165.8487 C.ar    1  UNL1       -0.0003
     20 C         139.5685  138.7832  165.4265 C.ar    1  UNL1       -0.0039
     21 C         142.0791  141.5381  166.7890 C.3     1  UNL1        0.1186
     22 O         142.5920  140.4644  167.7022 O.3     1  UNL1       -0.3819
     23 H         142.4924  140.7492  168.6241 H       1  UNL1        0.2107
     24 C         141.5662  142.6118  165.8757 C.ar    1  UNL1        0.0369
     25 C         140.1370  143.0574  165.9703 C.ar    1  UNL1        0.0010
     26 C         139.6242  144.1311  165.0571 C.ar    1  UNL1       -0.0000
     27 C         140.5404  144.7593  164.0492 C.ar    1  UNL1        0.0031
     28 C         141.9696  144.3137  163.9546 C.ar    1  UNL1        0.0375
     29 C         143.0990  144.7458  163.0670 C.ar    1  UNL1        0.0437
     30 C         144.3099  143.9391  163.4317 C.ar    1  UNL1        0.1796
     31 O         143.9289  143.0085  164.5447 O.2     1  UNL1       -0.4507
     32 C         142.4825  143.2400  164.8678 C.ar    1  UNL1        0.1436
     33 C         142.6931  142.5830  167.6727 C.3     1  UNL1        0.0492
     34 C         142.7463  142.3730  169.1570 C.3     1  UNL1        0.0750
     35 N         141.4910  142.4654  169.9731 N.3     1  UNL1       -0.2702
     36 C         140.4858  143.5406  169.6837 C.3     1  UNL1        0.0897
     37 C         141.2410  141.4828  171.0784 C.3     1  UNL1        0.0897
@<TRIPOS>BOND
     1    13    14    1
     2    14     2    1
     3     2     3   ar
     4     3     4   ar
     5     4     5   ar
     6     5     6   ar
     7     6     7   ar
     8     7     8    1
     9     7     9   ar
    10     9    10   ar
    11    10    11   ar
    12    11    12   ar
    13     1    12    1
    14     1    15    1
    15    15    16   ar
    16    16    17   ar
    17    17    18   ar
    18    18    19   ar
    19    19    20   ar
    20     1    21    1
    21    21    22    1
    22    21    33    1
    23    33    34    1
    24    34    35    1
    25    35    36    1
    26    35    37    1
    27    21    24    1
    28    24    25   ar
    29    25    26   ar
    30    26    27   ar
    31    27    28   ar
    32    28    29   ar
    33    29    30   ar
    34    30    31   ar
    35    31    32   ar
    36    12     2   ar
    37    20    15   ar
    38    32    24   ar
    39    10     4   ar
    40    32    28   ar
    41    22    23    1
@<TRIPOS>MOLECULE
*****
 37 41 0 0 0
SMALL
GASTEIGER

@<TRIPOS>ATOM
      1 C         139.5626  140.6059  164.5070 C.3     1  UNL1        0.0761
      2 C         138.9592  139.7491  166.8845 C.ar    1  UNL1        0.1351
      3 C         139.1911  139.7587  168.3664 C.ar    1  UNL1        0.0366
      4 C         140.2583  140.6346  168.9529 C.ar    1  UNL1        0.0030
      5 C         140.4902  140.6442  170.4348 C.ar    1  UNL1        0.0006
      6 C         141.5573  141.5201  171.0213 C.ar    1  UNL1        0.0067
      7 C         142.3925  142.3864  170.1259 C.ar    1  UNL1        0.0346
      8 BR        143.4597  143.2623  170.7124 Br      1  UNL1       -0.0490
      9 C         142.1607  142.3769  168.6440 C.ar    1  UNL1        0.0067
     10 C         141.0935  141.5010  168.0575 C.ar    1  UNL1        0.0004
     11 C         140.8616  141.4914  166.5755 C.ar    1  UNL1       -0.0009
     12 C         139.7945  140.6155  165.9890 C.ar    1  UNL1        0.0181
     13 C         137.2836  137.7779  167.1226 C.3     1  UNL1        0.2525
     14 O         137.8921  138.8732  166.2979 O.3     1  UNL1       -0.4717
     15 C         139.1173  141.8570  163.8095 C.ar    1  UNL1       -0.0157
     16 C         139.6102  142.1600  162.4256 C.ar    1  UNL1       -0.0039
     17 C         139.1649  143.4111  161.7281 C.ar    1  UNL1       -0.0003
     18 C         138.2268  144.3592  162.4145 C.ar    1  UNL1       -0.0000
     19 C         137.7339  144.0561  163.7984 C.ar    1  UNL1       -0.0003
     20 C         138.1792  142.8050  164.4960 C.ar    1  UNL1       -0.0039
     21 C         139.7759  139.3453  163.7227 C.3     1  UNL1        0.1186
     22 O         138.3551  139.4020  163.2451 O.3     1  UNL1       -0.3819
     23 H         137.9797  138.5076  163.2402 H       1  UNL1        0.2107
     24 C         141.1967  139.2885  164.2003 C.ar    1  UNL1        0.0369
     25 C         141.5623  138.4162  165.3645 C.ar    1  UNL1        0.0010
     26 C         142.9831  138.3594  165.8421 C.ar    1  UNL1       -0.0000
     27 C         144.0383  139.1750  165.1555 C.ar    1  UNL1        0.0031
     28 C         143.6727  140.0474  163.9913 C.ar    1  UNL1        0.0375
     29 C         144.4903  140.9567  163.1227 C.ar    1  UNL1        0.0437
     30 C         143.5749  141.5754  162.1082 C.ar    1  UNL1        0.1796
     31 O         142.1915  141.0485  162.3499 O.2     1  UNL1       -0.4507
     32 C         142.2518  140.1041  163.5137 C.ar    1  UNL1        0.1436
     33 C         139.9892  138.0847  162.9383 C.3     1  UNL1        0.0492
     34 C         139.6711  138.0502  161.4728 C.3     1  UNL1        0.0750
     35 N         140.6272  138.6480  160.4836 N.3     1  UNL1       -0.2702
     36 C         142.0242  138.1130  160.3734 C.3     1  UNL1        0.0897
     37 C         140.1863  139.7806  159.6045 C.3     1  UNL1        0.0897
@<TRIPOS>BOND
     1    13    14    1
     2    14     2    1
     3     2     3   ar
     4     3     4   ar
     5     4     5   ar
     6     5     6   ar
     7     6     7   ar
     8     7     8    1
     9     7     9   ar
    10     9    10   ar
    11    10    11   ar
    12    11    12   ar
    13     1    12    1
    14     1    15    1
    15    15    16   ar
    16    16    17   ar
    17    17    18   ar
    18    18    19   ar
    19    19    20   ar
    20     1    21    1
    21    21    22    1
    22    21    33    1
    23    33    34    1
    24    34    35    1
    25    35    36    1
    26    35    37    1
    27    21    24    1
    28    24    25   ar
    29    25    26   ar
    30    26    27   ar
    31    27    28   ar
    32    28    29   ar
    33    29    30   ar
    34    30    31   ar
    35    31    32   ar
    36    12     2   ar
    37    20    15   ar
    38    32    24   ar
    39    10     4   ar
    40    32    28   ar
    41    22    23    1
@<TRIPOS>MOLECULE
*****
 37 41 0 0 0
SMALL
GASTEIGER

@<TRIPOS>ATOM
      1 C         142.0841  141.7779  162.7304 C.3     1  UNL1        0.0761
      2 C         143.4773  142.4592  164.8148 C.ar    1  UNL1        0.1351
      3 C         143.6243  142.5546  166.3045 C.ar    1  UNL1        0.0366
      4 C         142.5250  142.0641  167.1996 C.ar    1  UNL1        0.0030
      5 C         142.6720  142.1595  168.6893 C.ar    1  UNL1        0.0006
      6 C         141.5728  141.6690  169.5843 C.ar    1  UNL1        0.0067
      7 C         140.3266  141.0830  168.9896 C.ar    1  UNL1        0.0346
      8 BR        139.2274  140.5925  169.8847 Br      1  UNL1       -0.0490
      9 C         140.1796  140.9876  167.4999 C.ar    1  UNL1        0.0067
     10 C         141.2788  141.4781  166.6049 C.ar    1  UNL1        0.0004
     11 C         141.1319  141.3827  165.1152 C.ar    1  UNL1       -0.0009
     12 C         142.2311  141.8733  164.2201 C.ar    1  UNL1        0.0181
     13 C         145.6541  142.0081  163.4702 C.3     1  UNL1        0.2525
     14 O         144.5765  142.9497  163.9197 O.3     1  UNL1       -0.4717
     15 C         142.4554  140.5101  162.0198 C.ar    1  UNL1       -0.0157
     16 C         142.5916  140.4999  160.5260 C.ar    1  UNL1       -0.0039
     17 C         142.9630  139.2321  159.8154 C.ar    1  UNL1       -0.0003
     18 C         143.1981  137.9746  160.5986 C.ar    1  UNL1       -0.0000
     19 C         143.0619  137.9848  162.0924 C.ar    1  UNL1       -0.0003
     20 C         142.6905  139.2526  162.8030 C.ar    1  UNL1       -0.0039
     21 C         141.5658  142.9502  161.9513 C.3     1  UNL1        0.1186
     22 O         142.9667  143.2989  161.5441 O.3     1  UNL1       -0.3819
     23 H         143.0803  144.2619  161.5683 H       1  UNL1        0.2107
     24 C         140.1649  142.6015  162.3585 C.ar    1  UNL1        0.0369
     25 C         139.4540  141.4583  161.6966 C.ar    1  UNL1        0.0010
     26 C         138.0531  141.1096  162.1038 C.ar    1  UNL1       -0.0000
     27 C         137.3631  141.9040  163.1728 C.ar    1  UNL1        0.0031
     28 C         138.0739  143.0471  163.8346 C.ar    1  UNL1        0.0375
     29 C         137.6525  144.0032  164.9108 C.ar    1  UNL1        0.0437
     30 C         138.7929  144.9429  165.1688 C.ar    1  UNL1        0.1796
     31 O         139.9192  144.5675  164.2520 O.2     1  UNL1       -0.4507
     32 C         139.4749  143.3959  163.4275 C.ar    1  UNL1        0.1436
     33 C         141.0476  144.1225  161.1722 C.3     1  UNL1        0.0492
     34 C         141.7163  144.5269  159.8918 C.3     1  UNL1        0.0750
     35 N         141.7993  143.5574  158.7502 N.3     1  UNL1       -0.2702
     36 C         143.0956  143.3680  158.0198 C.3     1  UNL1        0.0897
     37 C         140.5858  142.7774  158.3391 C.3     1  UNL1        0.0897
@<TRIPOS>BOND
     1    13    14    1
     2    14     2    1
     3     2     3   ar
     4     3     4   ar
     5     4     5   ar
     6     5     6   ar
     7     6     7   ar
     8     7     8    1
     9     7     9   ar
    10     9    10   ar
    11    10    11   ar
    12    11    12   ar
    13     1    12    1
    14     1    15    1
    15    15    16   ar
    16    16    17   ar
    17    17    18   ar
    18    18    19   ar
    19    19    20   ar
    20     1    21    1
    21    21    22    1
    22    21    33    1
    23    33    34    1
    24    34    35    1
    25    35    36    1
    26    35    37    1
    27    21    24    1
    28    24    25   ar
    29    25    26   ar
    30    26    27   ar
    31    27    28   ar
    32    28    29   ar
    33    29    30   ar
    34    30    31   ar
    35    31    32   ar
    36    12     2   ar
    37    20    15   ar
    38    32    24   ar
    39    10     4   ar
    40    32    28   ar
    41    22    23    1
@<TRIPOS>MOLECULE
*****
 37 41 0 0 0
SMALL
GASTEIGER

@<TRIPOS>ATOM
      1 C         140.8148  141.8663  162.8552 C.3     1  UNL1        0.0761
      2 C         139.4313  140.5953  164.6499 C.ar    1  UNL1        0.1351
      3 C         139.1553  140.2711  166.0881 C.ar    1  UNL1        0.0366
      4 C         139.9867  140.8939  167.1703 C.ar    1  UNL1        0.0030
      5 C         139.7107  140.5698  168.6085 C.ar    1  UNL1        0.0006
      6 C         140.5421  141.1926  169.6906 C.ar    1  UNL1        0.0067
      7 C         141.6496  142.1395  169.3343 C.ar    1  UNL1        0.0346
      8 BR        142.4810  142.7623  170.4164 Br      1  UNL1       -0.0490
      9 C         141.9256  142.4637  167.8960 C.ar    1  UNL1        0.0067
     10 C         141.0942  141.8409  166.8140 C.ar    1  UNL1        0.0004
     11 C         141.3702  142.1650  165.3756 C.ar    1  UNL1       -0.0009
     12 C         140.5388  141.5422  164.2936 C.ar    1  UNL1        0.0181
     13 C         138.6266  138.4868  163.3626 C.3     1  UNL1        0.2525
     14 O         138.5999  139.9725  163.5677 O.3     1  UNL1       -0.4717
     15 C         140.5323  143.2423  162.3289 C.ar    1  UNL1       -0.0157
     16 C         141.2798  143.7565  161.1345 C.ar    1  UNL1       -0.0039
     17 C         140.9973  145.1324  160.6082 C.ar    1  UNL1       -0.0003
     18 C         139.9673  145.9941  161.2764 C.ar    1  UNL1       -0.0000
     19 C         139.2198  145.4800  162.4709 C.ar    1  UNL1       -0.0003
     20 C         139.5023  144.1040  162.9972 C.ar    1  UNL1       -0.0039
     21 C         141.3732  140.8145  161.9432 C.3     1  UNL1        0.1186
     22 O         140.0803  140.7870  161.1833 O.3     1  UNL1       -0.3819
     23 H         139.8604  139.8709  160.9524 H       1  UNL1        0.2107
     24 C         142.6661  140.8420  162.7032 C.ar    1  UNL1        0.0369
     25 C         143.7068  141.8716  162.3759 C.ar    1  UNL1        0.0010
     26 C         144.9997  141.8992  163.1359 C.ar    1  UNL1       -0.0000
     27 C         145.2520  140.8971  164.2232 C.ar    1  UNL1        0.0031
     28 C         144.2115  139.8675  164.5505 C.ar    1  UNL1        0.0375
     29 C         144.1782  138.7605  165.5621 C.ar    1  UNL1        0.0437
     30 C         142.8647  138.0487  165.4273 C.ar    1  UNL1        0.1796
     31 O         142.0862  138.7159  164.3324 O.2     1  UNL1       -0.4507
     32 C         142.9185  139.8400  163.7905 C.ar    1  UNL1        0.1436
     33 C         141.9317  139.7627  161.0312 C.3     1  UNL1        0.0492
     34 C         141.0327  138.6992  160.4738 C.3     1  UNL1        0.0750
     35 N         140.9276  138.5081  158.9897 N.3     1  UNL1       -0.2702
     36 C         142.1246  138.0598  158.2046 C.3     1  UNL1        0.0897
     37 C         139.6256  138.7653  158.2907 C.3     1  UNL1        0.0897
@<TRIPOS>BOND
     1    13    14    1
     2    14     2    1
     3     2     3   ar
     4     3     4   ar
     5     4     5   ar
     6     5     6   ar
     7     6     7   ar
     8     7     8    1
     9     7     9   ar
    10     9    10   ar
    11    10    11   ar
    12    11    12   ar
    13     1    12    1
    14     1    15    1
    15    15    16   ar
    16    16    17   ar
    17    17    18   ar
    18    18    19   ar
    19    19    20   ar
    20     1    21    1
    21    21    22    1
    22    21    33    1
    23    33    34    1
    24    34    35    1
    25    35    36    1
    26    35    37    1
    27    21    24    1
    28    24    25   ar
    29    25    26   ar
    30    26    27   ar
    31    27    28   ar
    32    28    29   ar
    33    29    30   ar
    34    30    31   ar
    35    31    32   ar
    36    12     2   ar
    37    20    15   ar
    38    32    24   ar
    39    10     4   ar
    40    32    28   ar
    41    22    23    1
@<TRIPOS>MOLECULE
*****
 37 41 0 0 0
SMALL
GASTEIGER

@<TRIPOS>ATOM
      1 C         140.1100  141.0106  164.6590 C.3     1  UNL1        0.0761
      2 C         141.9694  139.2833  164.1029 C.ar    1  UNL1        0.1351
      3 C         142.7180  138.4587  163.0981 C.ar    1  UNL1        0.0366
      4 C         142.3559  138.5369  161.6445 C.ar    1  UNL1        0.0030
      5 C         143.1045  137.7123  160.6397 C.ar    1  UNL1        0.0006
      6 C         142.7423  137.7905  159.1862 C.ar    1  UNL1        0.0067
      7 C         141.6316  138.6933  158.7375 C.ar    1  UNL1        0.0346
      8 BR        141.2695  138.7715  157.2839 Br      1  UNL1       -0.0490
      9 C         140.8830  139.5178  159.7423 C.ar    1  UNL1        0.0067
     10 C         141.2451  139.4396  161.1958 C.ar    1  UNL1        0.0004
     11 C         140.4965  140.2642  162.2007 C.ar    1  UNL1       -0.0009
     12 C         140.8586  140.1860  163.6542 C.ar    1  UNL1        0.0181
     13 C         143.6621  138.6490  165.9690 C.3     1  UNL1        0.2525
     14 O         142.3315  139.2051  165.5564 O.3     1  UNL1       -0.4717
     15 C         139.4399  140.3458  165.8248 C.ar    1  UNL1       -0.0157
     16 C         138.4054  139.2853  165.5904 C.ar    1  UNL1       -0.0039
     17 C         137.7352  138.6205  166.7561 C.ar    1  UNL1       -0.0003
     18 C         138.0995  139.0163  168.1563 C.ar    1  UNL1       -0.0000
     19 C         139.1341  140.0769  168.3908 C.ar    1  UNL1       -0.0003
     20 C         139.8043  140.7417  167.2250 C.ar    1  UNL1       -0.0039
     21 C         140.0316  142.4998  164.4981 C.3     1  UNL1        0.1186
     22 O         138.5530  142.3971  164.2677 O.3     1  UNL1       -0.3819
     23 H         138.2916  143.0134  163.5658 H       1  UNL1        0.2107
     24 C         141.5102  142.6026  164.7285 C.ar    1  UNL1        0.0369
     25 C         142.0672  142.4356  166.1113 C.ar    1  UNL1        0.0010
     26 C         143.5458  142.5383  166.3417 C.ar    1  UNL1       -0.0000
     27 C         144.4675  142.8081  165.1894 C.ar    1  UNL1        0.0031
     28 C         143.9106  142.9751  163.8067 C.ar    1  UNL1        0.0375
     29 C         144.5677  143.2467  162.4860 C.ar    1  UNL1        0.0437
     30 C         143.4952  143.3118  161.4393 C.ar    1  UNL1        0.1796
     31 O         142.1752  143.0805  162.1131 O.2     1  UNL1       -0.4507
     32 C         142.4319  142.8724  163.5763 C.ar    1  UNL1        0.1436
     33 C         139.9532  143.9891  164.3372 C.3     1  UNL1        0.0492
     34 C         138.9377  144.5910  163.4118 C.3     1  UNL1        0.0750
     35 N         139.2381  144.7151  161.9473 N.3     1  UNL1       -0.2702
     36 C         138.9726  143.5608  161.0269 C.3     1  UNL1        0.0897
     37 C         139.8038  145.9933  161.4034 C.3     1  UNL1        0.0897
@<TRIPOS>BOND
     1    13    14    1
     2    14     2    1
     3     2     3   ar
     4     3     4   ar
     5     4     5   ar
     6     5     6   ar
     7     6     7   ar
     8     7     8    1
     9     7     9   ar
    10     9    10   ar
    11    10    11   ar
    12    11    12   ar
    13     1    12    1
    14     1    15    1
    15    15    16   ar
    16    16    17   ar
    17    17    18   ar
    18    18    19   ar
    19    19    20   ar
    20     1    21    1
    21    21    22    1
    22    21    33    1
    23    33    34    1
    24    34    35    1
    25    35    36    1
    26    35    37    1
    27    21    24    1
    28    24    25   ar
    29    25    26   ar
    30    26    27   ar
    31    27    28   ar
    32    28    29   ar
    33    29    30   ar
    34    30    31   ar
    35    31    32   ar
    36    12     2   ar
    37    20    15   ar
    38    32    24   ar
    39    10     4   ar
    40    32    28   ar
    41    22    23    1
@<TRIPOS>MOLECULE
*****
 37 41 0 0 0
SMALL
GASTEIGER

@<TRIPOS>ATOM
      1 C         140.5598  141.3538  163.0597 C.3     1  UNL1        0.0761
      2 C         139.0631  139.9985  164.6947 C.ar    1  UNL1        0.1351
      3 C         138.6789  139.6216  166.0948 C.ar    1  UNL1        0.0366
      4 C         139.4070  140.2232  167.2601 C.ar    1  UNL1        0.0030
      5 C         139.0227  139.8463  168.6602 C.ar    1  UNL1        0.0006
      6 C         139.7509  140.4478  169.8255 C.ar    1  UNL1        0.0067
      7 C         140.8633  141.4263  169.5907 C.ar    1  UNL1        0.0346
      8 BR        141.5914  142.0279  170.7560 Br      1  UNL1       -0.0490
      9 C         141.2476  141.8032  168.1906 C.ar    1  UNL1        0.0067
     10 C         140.5194  141.2016  167.0253 C.ar    1  UNL1        0.0004
     11 C         140.9037  141.5785  165.6252 C.ar    1  UNL1       -0.0009
     12 C         140.1755  140.9769  164.4599 C.ar    1  UNL1        0.0181
     13 C         138.5746  137.9646  163.1536 C.3     1  UNL1        0.2525
     14 O         138.3350  139.3969  163.5294 O.3     1  UNL1       -0.4717
     15 C         140.4432  142.7794  162.6080 C.ar    1  UNL1       -0.0157
     16 C         141.4151  143.3310  161.6075 C.ar    1  UNL1       -0.0039
     17 C         141.2985  144.7566  161.1557 C.ar    1  UNL1       -0.0003
     18 C         140.2100  145.6306  161.7045 C.ar    1  UNL1       -0.0000
     19 C         139.2380  145.0790  162.7051 C.ar    1  UNL1       -0.0003
     20 C         139.3546  143.6535  163.1568 C.ar    1  UNL1       -0.0039
     21 C         141.0606  140.3051  162.1114 C.3     1  UNL1        0.1186
     22 O         139.9461  140.6314  161.1620 O.3     1  UNL1       -0.3819
     23 H         139.5991  139.8116  160.7768 H       1  UNL1        0.2107
     24 C         142.1751  139.9789  163.0608 C.ar    1  UNL1        0.0369
     25 C         142.0218  138.8515  164.0384 C.ar    1  UNL1        0.0010
     26 C         143.1363  138.5252  164.9878 C.ar    1  UNL1       -0.0000
     27 C         144.4042  139.3263  164.9597 C.ar    1  UNL1        0.0031
     28 C         144.5576  140.4536  163.9821 C.ar    1  UNL1        0.0375
     29 C         145.6823  141.4116  163.7233 C.ar    1  UNL1        0.0437
     30 C         145.2630  142.3300  162.6139 C.ar    1  UNL1        0.1796
     31 O         143.8790  141.9396  162.1871 O.2     1  UNL1       -0.4507
     32 C         143.4430  140.7799  163.0327 C.ar    1  UNL1        0.1436
     33 C         141.5615  139.2565  161.1631 C.3     1  UNL1        0.0492
     34 C         141.4486  139.4687  159.6825 C.3     1  UNL1        0.0750
     35 N         142.3050  140.4971  159.0048 N.3     1  UNL1       -0.2702
     36 C         143.7996  140.3834  159.0610 C.3     1  UNL1        0.0897
     37 C         141.6667  141.6389  158.2709 C.3     1  UNL1        0.0897
@<TRIPOS>BOND
     1    13    14    1
     2    14     2    1
     3     2     3   ar
     4     3     4   ar
     5     4     5   ar
     6     5     6   ar
     7     6     7   ar
     8     7     8    1
     9     7     9   ar
    10     9    10   ar
    11    10    11   ar
    12    11    12   ar
    13     1    12    1
    14     1    15    1
    15    15    16   ar
    16    16    17   ar
    17    17    18   ar
    18    18    19   ar
    19    19    20   ar
    20     1    21    1
    21    21    22    1
    22    21    33    1
    23    33    34    1
    24    34    35    1
    25    35    36    1
    26    35    37    1
    27    21    24    1
    28    24    25   ar
    29    25    26   ar
    30    26    27   ar
    31    27    28   ar
    32    28    29   ar
    33    29    30   ar
    34    30    31   ar
    35    31    32   ar
    36    12     2   ar
    37    20    15   ar
    38    32    24   ar
    39    10     4   ar
    40    32    28   ar
    41    22    23    1
@<TRIPOS>MOLECULE
*****
 37 41 0 0 0
SMALL
GASTEIGER

@<TRIPOS>ATOM
      1 C         141.3241  141.6213  163.6583 C.3     1  UNL1        0.0761
      2 C         142.4636  139.7259  165.0217 C.ar    1  UNL1        0.1351
      3 C         142.8230  139.1109  166.3418 C.ar    1  UNL1        0.0366
      4 C         142.4023  139.7764  167.6186 C.ar    1  UNL1        0.0030
      5 C         142.7617  139.1614  168.9386 C.ar    1  UNL1        0.0006
      6 C         142.3410  139.8268  170.2154 C.ar    1  UNL1        0.0067
      7 C         141.5610  141.1073  170.1721 C.ar    1  UNL1        0.0346
      8 BR        141.1403  141.7728  171.4489 Br      1  UNL1       -0.0490
      9 C         141.2016  141.7223  168.8520 C.ar    1  UNL1        0.0067
     10 C         141.6222  141.0568  167.5753 C.ar    1  UNL1        0.0004
     11 C         141.2629  141.6718  166.2551 C.ar    1  UNL1       -0.0009
     12 C         141.6835  141.0063  164.9784 C.ar    1  UNL1        0.0181
     13 C         144.3190  139.1110  163.3101 C.3     1  UNL1        0.2525
     14 O         142.8843  139.0604  163.7449 O.3     1  UNL1       -0.4717
     15 C         142.4052  142.0262  162.7004 C.ar    1  UNL1       -0.0157
     16 C         143.5795  142.8221  163.1876 C.ar    1  UNL1       -0.0039
     17 C         144.6605  143.2269  162.2297 C.ar    1  UNL1       -0.0003
     18 C         144.5672  142.8358  160.7846 C.ar    1  UNL1       -0.0000
     19 C         143.3928  142.0399  160.2974 C.ar    1  UNL1       -0.0003
     20 C         142.3118  141.6351  161.2552 C.ar    1  UNL1       -0.0039
     21 C         139.8838  141.8315  163.2960 C.3     1  UNL1        0.1186
     22 O         140.0958  143.3163  163.3146 O.3     1  UNL1       -0.3819
     23 H         139.3270  143.7476  163.7194 H       1  UNL1        0.2107
     24 C         139.6719  140.3467  163.2775 C.ar    1  UNL1        0.0369
     25 C         140.0631  139.5482  162.0694 C.ar    1  UNL1        0.0010
     26 C         139.8512  138.0634  162.0508 C.ar    1  UNL1       -0.0000
     27 C         139.2480  137.3770  163.2403 C.ar    1  UNL1        0.0031
     28 C         138.8567  138.1753  164.4484 C.ar    1  UNL1        0.0375
     29 C         138.2452  137.7780  165.7592 C.ar    1  UNL1        0.0437
     30 C         138.0792  139.0173  166.5879 C.ar    1  UNL1        0.1796
     31 O         138.5881  140.1805  165.7893 O.2     1  UNL1       -0.4507
     32 C         139.0687  139.6602  164.4670 C.ar    1  UNL1        0.1436
     33 C         138.4435  142.0416  162.9338 C.3     1  UNL1        0.0492
     34 C         138.0758  143.0190  161.8570 C.3     1  UNL1        0.0750
     35 N         138.7343  142.9357  160.5118 N.3     1  UNL1       -0.2702
     36 C         138.4392  141.7797  159.6026 C.3     1  UNL1        0.0897
     37 C         139.6878  144.0083  160.0758 C.3     1  UNL1        0.0897
@<TRIPOS>BOND
     1    13    14    1
     2    14     2    1
     3     2     3   ar
     4     3     4   ar
     5     4     5   ar
     6     5     6   ar
     7     6     7   ar
     8     7     8    1
     9     7     9   ar
    10     9    10   ar
    11    10    11   ar
    12    11    12   ar
    13     1    12    1
    14     1    15    1
    15    15    16   ar
    16    16    17   ar
    17    17    18   ar
    18    18    19   ar
    19    19    20   ar
    20     1    21    1
    21    21    22    1
    22    21    33    1
    23    33    34    1
    24    34    35    1
    25    35    36    1
    26    35    37    1
    27    21    24    1
    28    24    25   ar
    29    25    26   ar
    30    26    27   ar
    31    27    28   ar
    32    28    29   ar
    33    29    30   ar
    34    30    31   ar
    35    31    32   ar
    36    12     2   ar
    37    20    15   ar
    38    32    24   ar
    39    10     4   ar
    40    32    28   ar
    41    22    23    1
