@<TRIPOS>MOLECULE
*****
 29 31 0 0 0
SMALL
GASTEIGER

@<TRIPOS>ATOM
      1 C         142.8766  140.1699  165.4082 C.ar    1  UNL1        0.1143
      2 C         143.0723  139.2878  166.6055 C.ar    1  UNL1        0.0850
      3 CL        143.7415  137.9454  166.6117 Cl      1  UNL1       -0.0799
      4 C         142.4812  139.9838  167.7956 C.ar    1  UNL1        0.0574
      5 C         142.3813  139.5921  169.2401 C.ar    1  UNL1        0.0631
      6 CL        142.9423  138.2798  169.7019 Cl      1  UNL1       -0.0821
      7 C         141.7205  140.5127  170.2228 C.ar    1  UNL1        0.0353
      8 C         141.1596  141.8250  169.7610 C.ar    1  UNL1        0.1366
      9 N         141.2594  142.2167  168.3165 N.ar    1  UNL1       -0.2236
     10 C         141.9203  141.2960  167.3338 C.ar    1  UNL1        0.1460
     11 N         142.1646  141.4111  165.8583 N.ar    1  UNL1       -0.3061
     12 C         141.7669  142.5647  164.9861 C.3     1  UNL1        0.1031
     13 C         142.7897  143.5819  164.5752 C.3     1  UNL1        0.0255
     14 C         142.3919  144.7356  163.7029 C.3     1  UNL1        0.0191
     15 C         140.9712  144.8721  163.2416 C.3     1  UNL1        0.0687
     16 N         139.9482  143.8549  163.6525 N.3     1  UNL1       -0.2959
     17 C         140.3460  142.7012  164.5247 C.3     1  UNL1        0.0914
     18 H         139.5670  143.4573  162.7940 H       1  UNL1        0.1233
     19 C         140.4987  142.7457  170.7437 C.2     1  UNL1        0.2606
     20 N         140.0584  144.1129  170.3116 N.am    1  UNL1       -0.3241
     21 O         140.2782  142.2990  172.1586 O.2     1  UNL1       -0.2687
     22 H         140.2031  144.4060  169.3830 H       1  UNL1        0.1453
     23 H         139.6247  144.7171  170.9566 H       1  UNL1        0.1453
     24 C         143.7550  139.5591  162.6055 C.1     1  UNL1       -0.0823
     25 C         143.3158  139.8645  164.0068 C.1     1  UNL1       -0.0459
     26 C         144.1942  139.2536  161.2041 C.3     1  UNL1        0.1084
     27 C         143.3056  138.4555  160.2968 C.3     1  UNL1        0.1562
     28 C         142.6599  137.6750  157.9043 C.3     1  UNL1        0.1741
     29 O         143.4635  138.5616  158.8089 O.3     1  UNL1       -0.3500
@<TRIPOS>BOND
     1    28    29    1
     2    29    27    1
     3    27    26    1
     4    26    24    1
     5    24    25    3
     6    25     1    1
     7     1     2   ar
     8     2     3    1
     9     2     4   ar
    10     4     5   ar
    11     5     6    1
    12     5     7   ar
    13     7     8   ar
    14     8    19    1
    15    19    20   am
    16    19    21    2
    17     8     9   ar
    18     9    10   ar
    19    10    11   ar
    20    12    11    1
    21    12    13    1
    22    13    14    1
    23    14    15    1
    24    15    16    1
    25    16    17    1
    26    11     1   ar
    27    17    12    1
    28    10     4   ar
    29    20    22    1
    30    20    23    1
    31    16    18    1
@<TRIPOS>MOLECULE
*****
 29 31 0 0 0
SMALL
GASTEIGER

@<TRIPOS>ATOM
      1 C         140.0738  139.5623  165.4508 C.ar    1  UNL1        0.1143
      2 C         139.1577  139.4820  166.6358 C.ar    1  UNL1        0.0850
      3 CL        137.7962  138.8527  166.6567 Cl      1  UNL1       -0.0799
      4 C         139.8420  140.1415  167.7963 C.ar    1  UNL1        0.0574
      5 C         139.4188  140.3608  169.2186 C.ar    1  UNL1        0.0631
      6 CL        138.0798  139.8729  169.6864 Cl      1  UNL1       -0.0821
      7 C         140.3347  141.0680  170.1730 C.ar    1  UNL1        0.0353
      8 C         141.6738  141.5559  169.7052 C.ar    1  UNL1        0.1366
      9 N         142.0970  141.3366  168.2830 N.ar    1  UNL1       -0.2236
     10 C         141.1811  140.6294  167.3285 C.ar    1  UNL1        0.1460
     11 N         141.3243  140.2714  165.8789 N.ar    1  UNL1       -0.3061
     12 C         142.5100  140.5702  165.0100 C.3     1  UNL1        0.1031
     13 C         143.6261  139.5747  164.8959 C.3     1  UNL1        0.0255
     14 C         144.8117  139.8734  164.0270 C.3     1  UNL1        0.0191
     15 C         144.8812  141.1677  163.2721 C.3     1  UNL1        0.0687
     16 N         143.7651  142.1634  163.3862 N.3     1  UNL1       -0.2959
     17 C         142.5795  141.8646  164.2551 C.3     1  UNL1        0.0914
     18 H         143.4081  142.3148  162.4428 H       1  UNL1        0.1233
     19 C         142.5897  142.2631  170.6597 C.2     1  UNL1        0.2606
     20 N         143.9201  142.7693  170.1867 N.am    1  UNL1       -0.3241
     21 O         142.1752  142.4640  172.0872 O.2     1  UNL1       -0.2687
     22 H         144.1922  142.6374  169.2498 H       1  UNL1        0.1453
     23 H         144.5212  143.2334  170.8132 H       1  UNL1        0.1453
     24 C         139.5048  138.4925  162.7064 C.1     1  UNL1       -0.0823
     25 C         139.7893  139.0274  164.0786 C.1     1  UNL1       -0.0459
     26 C         139.2203  137.9576  161.3342 C.3     1  UNL1        0.1084
     27 C         139.4288  138.8292  160.1314 C.3     1  UNL1        0.1562
     28 C         138.3954  140.6594  158.6041 C.3     1  UNL1        0.1741
     29 O         138.2471  139.3994  159.4044 O.3     1  UNL1       -0.3500
@<TRIPOS>BOND
     1    28    29    1
     2    29    27    1
     3    27    26    1
     4    26    24    1
     5    24    25    3
     6    25     1    1
     7     1     2   ar
     8     2     3    1
     9     2     4   ar
    10     4     5   ar
    11     5     6    1
    12     5     7   ar
    13     7     8   ar
    14     8    19    1
    15    19    20   am
    16    19    21    2
    17     8     9   ar
    18     9    10   ar
    19    10    11   ar
    20    12    11    1
    21    12    13    1
    22    13    14    1
    23    14    15    1
    24    15    16    1
    25    16    17    1
    26    11     1   ar
    27    17    12    1
    28    10     4   ar
    29    20    22    1
    30    20    23    1
    31    16    18    1
@<TRIPOS>MOLECULE
*****
 29 31 0 0 0
SMALL
GASTEIGER

@<TRIPOS>ATOM
      1 C         140.4874  141.2371  165.6942 C.ar    1  UNL1        0.1143
      2 C         139.7847  139.9353  165.4461 C.ar    1  UNL1        0.0850
      3 CL        138.9462  139.1832  166.4367 Cl      1  UNL1       -0.0799
      4 C         140.0675  139.5177  164.0334 C.ar    1  UNL1        0.0574
      5 C         139.6394  138.3219  163.2355 C.ar    1  UNL1        0.0631
      6 CL        138.7618  137.2782  163.8605 Cl      1  UNL1       -0.0821
      7 C         140.0888  138.1698  161.8126 C.ar    1  UNL1        0.0353
      8 C         140.9664  139.2134  161.1875 C.ar    1  UNL1        0.1366
      9 N         141.3945  140.4092  161.9855 N.ar    1  UNL1       -0.2236
     10 C         140.9451  140.5614  163.4084 C.ar    1  UNL1        0.1460
     11 N         141.2045  141.6240  164.4348 N.ar    1  UNL1       -0.3061
     12 C         142.0353  142.8571  164.2366 C.3     1  UNL1        0.1031
     13 C         143.3746  142.9741  164.9018 C.3     1  UNL1        0.0255
     14 C         144.2054  144.2072  164.7036 C.3     1  UNL1        0.0191
     15 C         143.6969  145.3233  163.8401 C.3     1  UNL1        0.0687
     16 N         142.3576  145.2064  163.1748 N.3     1  UNL1       -0.2959
     17 C         141.5268  143.9733  163.3730 C.3     1  UNL1        0.0914
     18 H         142.5185  145.2949  162.1715 H       1  UNL1        0.1233
     19 C         141.4158  139.0613  159.7645 C.2     1  UNL1        0.2606
     20 N         140.5914  139.6379  158.6519 N.am    1  UNL1       -0.3241
     21 O         142.6896  138.3325  159.4542 O.2     1  UNL1       -0.2687
     22 H         139.7554  140.1162  158.8556 H       1  UNL1        0.1453
     23 H         140.8864  139.5380  157.7180 H       1  UNL1        0.1453
     24 C         140.4628  142.7936  168.2587 C.1     1  UNL1       -0.0823
     25 C         140.4751  142.0154  166.9764 C.1     1  UNL1       -0.0459
     26 C         140.4505  143.5718  169.5409 C.3     1  UNL1        0.1084
     27 C         139.7779  143.0050  170.7559 C.3     1  UNL1        0.1562
     28 C         141.6488  141.2878  171.3047 C.3     1  UNL1        0.1741
     29 O         140.5762  142.2311  171.7628 O.3     1  UNL1       -0.3500
@<TRIPOS>BOND
     1    28    29    1
     2    29    27    1
     3    27    26    1
     4    26    24    1
     5    24    25    3
     6    25     1    1
     7     1     2   ar
     8     2     3    1
     9     2     4   ar
    10     4     5   ar
    11     5     6    1
    12     5     7   ar
    13     7     8   ar
    14     8    19    1
    15    19    20   am
    16    19    21    2
    17     8     9   ar
    18     9    10   ar
    19    10    11   ar
    20    12    11    1
    21    12    13    1
    22    13    14    1
    23    14    15    1
    24    15    16    1
    25    16    17    1
    26    11     1   ar
    27    17    12    1
    28    10     4   ar
    29    20    22    1
    30    20    23    1
    31    16    18    1
@<TRIPOS>MOLECULE
*****
 29 31 0 0 0
SMALL
GASTEIGER

@<TRIPOS>ATOM
      1 C         141.2997  140.4601  164.6428 C.ar    1  UNL1        0.1143
      2 C         141.9604  139.6484  165.7173 C.ar    1  UNL1        0.0850
      3 CL        142.7501  138.3898  165.5118 Cl      1  UNL1       -0.0799
      4 C         141.6928  140.3163  167.0335 C.ar    1  UNL1        0.0574
      5 C         142.0946  139.9676  168.4360 C.ar    1  UNL1        0.0631
      6 CL        142.9207  138.7431  168.6971 Cl      1  UNL1       -0.0821
      7 C         141.6703  140.8435  169.5774 C.ar    1  UNL1        0.0353
      8 C         140.8442  142.0680  169.3163 C.ar    1  UNL1        0.1366
      9 N         140.4424  142.4166  167.9138 N.ar    1  UNL1       -0.2236
     10 C         140.8667  141.5408  166.7724 C.ar    1  UNL1        0.1460
     11 N         140.6238  141.6297  165.2949 N.ar    1  UNL1       -0.3061
     12 C         139.8421  142.7002  164.5928 C.3     1  UNL1        0.1031
     13 C         138.5086  142.3793  163.9857 C.3     1  UNL1        0.0255
     14 C         137.7269  143.4498  163.2835 C.3     1  UNL1        0.0191
     15 C         138.2788  144.8413  163.1885 C.3     1  UNL1        0.0687
     16 N         139.6124  145.1623  163.7956 N.3     1  UNL1       -0.2959
     17 C         140.3941  144.0918  164.4977 C.3     1  UNL1        0.0914
     18 H         139.4550  145.9060  164.4756 H       1  UNL1        0.1233
     19 C         140.4199  142.9439  170.4578 C.2     1  UNL1        0.2606
     20 N         140.0802  144.3841  170.2120 N.am    1  UNL1       -0.3241
     21 O         140.3352  142.3795  171.8449 O.2     1  UNL1       -0.2687
     22 H         140.1358  144.7545  169.3016 H       1  UNL1        0.1453
     23 H         139.8018  144.9589  170.9612 H       1  UNL1        0.1453
     24 C         141.3257  139.8513  161.7053 C.1     1  UNL1       -0.0823
     25 C         141.3127  140.1557  163.1741 C.1     1  UNL1       -0.0459
     26 C         141.3387  139.5470  160.2366 C.3     1  UNL1        0.1084
     27 C         142.2224  138.4582  159.7041 C.3     1  UNL1        0.1562
     28 C         144.1267  137.8057  161.3466 C.3     1  UNL1        0.1741
     29 O         143.6794  138.4335  160.0598 O.3     1  UNL1       -0.3500
@<TRIPOS>BOND
     1    28    29    1
     2    29    27    1
     3    27    26    1
     4    26    24    1
     5    24    25    3
     6    25     1    1
     7     1     2   ar
     8     2     3    1
     9     2     4   ar
    10     4     5   ar
    11     5     6    1
    12     5     7   ar
    13     7     8   ar
    14     8    19    1
    15    19    20   am
    16    19    21    2
    17     8     9   ar
    18     9    10   ar
    19    10    11   ar
    20    12    11    1
    21    12    13    1
    22    13    14    1
    23    14    15    1
    24    15    16    1
    25    16    17    1
    26    11     1   ar
    27    17    12    1
    28    10     4   ar
    29    20    22    1
    30    20    23    1
    31    16    18    1
@<TRIPOS>MOLECULE
*****
 29 31 0 0 0
SMALL
GASTEIGER

@<TRIPOS>ATOM
      1 C         142.2357  142.2867  164.9861 C.ar    1  UNL1        0.1143
      2 C         143.0917  142.5465  166.1901 C.ar    1  UNL1        0.0850
      3 CL        144.4471  143.1891  166.1863 Cl      1  UNL1       -0.0799
      4 C         142.3544  142.0510  167.3988 C.ar    1  UNL1        0.0574
      5 C         142.7079  142.0421  168.8564 C.ar    1  UNL1        0.0631
      6 CL        144.0196  142.6082  169.3135 Cl      1  UNL1       -0.0821
      7 C         141.7497  141.4672  169.8570 C.ar    1  UNL1        0.0353
      8 C         140.4380  140.9011  169.3999 C.ar    1  UNL1        0.1366
      9 N         140.0844  140.9099  167.9422 N.ar    1  UNL1       -0.2236
     10 C         141.0426  141.4849  166.9417 C.ar    1  UNL1        0.1460
     11 N         140.9694  141.6306  165.4505 N.ar    1  UNL1       -0.3061
     12 C         139.8297  141.1964  164.5772 C.3     1  UNL1        0.1031
     13 C         140.0246  140.0879  163.5857 C.3     1  UNL1        0.0255
     14 C         138.8850  139.6537  162.7124 C.3     1  UNL1        0.0191
     15 C         137.5503  140.3280  162.8307 C.3     1  UNL1        0.0687
     16 N         137.3553  141.4365  163.8222 N.3     1  UNL1       -0.2959
     17 C         138.4950  141.8707  164.6955 C.3     1  UNL1        0.0914
     18 H         136.6016  141.1454  164.4448 H       1  UNL1        0.1233
     19 C         139.4798  140.3261  170.4006 C.2     1  UNL1        0.2606
     20 N         139.9401  139.2656  171.3563 N.am    1  UNL1       -0.3241
     21 O         138.0612  140.8117  170.4455 O.2     1  UNL1       -0.2687
     22 H         140.8711  138.9469  171.3268 H       1  UNL1        0.1453
     23 H         139.3112  138.8882  172.0130 H       1  UNL1        0.1453
     24 C         142.9340  142.9609  162.1474 C.1     1  UNL1       -0.0823
     25 C         142.5849  142.6238  163.5667 C.1     1  UNL1       -0.0459
     26 C         143.2831  143.2980  160.7281 C.3     1  UNL1        0.1084
     27 C         142.2013  143.6688  159.7574 C.3     1  UNL1        0.1562
     28 C         140.5053  145.5130  160.4449 C.3     1  UNL1        0.1741
     29 O         141.7208  145.0874  159.6758 O.3     1  UNL1       -0.3500
@<TRIPOS>BOND
     1    28    29    1
     2    29    27    1
     3    27    26    1
     4    26    24    1
     5    24    25    3
     6    25     1    1
     7     1     2   ar
     8     2     3    1
     9     2     4   ar
    10     4     5   ar
    11     5     6    1
    12     5     7   ar
    13     7     8   ar
    14     8    19    1
    15    19    20   am
    16    19    21    2
    17     8     9   ar
    18     9    10   ar
    19    10    11   ar
    20    12    11    1
    21    12    13    1
    22    13    14    1
    23    14    15    1
    24    15    16    1
    25    16    17    1
    26    11     1   ar
    27    17    12    1
    28    10     4   ar
    29    20    22    1
    30    20    23    1
    31    16    18    1
@<TRIPOS>MOLECULE
*****
 29 31 0 0 0
SMALL
GASTEIGER

@<TRIPOS>ATOM
      1 C         140.0360  141.1374  164.6638 C.ar    1  UNL1        0.1143
      2 C         139.2827  140.4473  165.7621 C.ar    1  UNL1        0.0850
      3 CL        138.0944  139.5488  165.5868 Cl      1  UNL1       -0.0799
      4 C         139.9263  140.8133  167.0666 C.ar    1  UNL1        0.0574
      5 C         139.6130  140.4306  168.4827 C.ar    1  UNL1        0.0631
      6 CL        138.4619  139.5142  168.7748 Cl      1  UNL1       -0.0821
      7 C         140.4507  140.9642  169.6067 C.ar    1  UNL1        0.0353
      8 C         141.6018  141.8806  169.3146 C.ar    1  UNL1        0.1366
      9 N         141.9152  142.2633  167.8985 N.ar    1  UNL1       -0.2236
     10 C         141.0774  141.7297  166.7746 C.ar    1  UNL1        0.1460
     11 N         141.1452  141.9299  165.2895 N.ar    1  UNL1       -0.3061
     12 C         142.1464  142.7745  164.5586 C.3     1  UNL1        0.1031
     13 C         141.8498  144.2185  164.2818 C.3     1  UNL1        0.0255
     14 C         142.8510  145.0631  163.5508 C.3     1  UNL1        0.0191
     15 C         144.1488  144.4636  163.0966 C.3     1  UNL1        0.0687
     16 N         144.4454  143.0195  163.3734 N.3     1  UNL1       -0.2959
     17 C         143.4442  142.1750  164.1044 C.3     1  UNL1        0.0914
     18 H         145.3062  142.9953  163.9201 H       1  UNL1        0.1233
     19 C         142.4396  142.4142  170.4387 C.2     1  UNL1        0.2606
     20 N         143.8161  142.9423  170.1629 N.am    1  UNL1       -0.3241
     21 O         141.9007  142.4197  171.8385 O.2     1  UNL1       -0.2687
     22 H         144.1698  142.9388  169.2441 H       1  UNL1        0.1453
     23 H         144.3660  143.2926  170.9006 H       1  UNL1        0.1453
     24 C         139.4304  140.9631  161.7307 C.1     1  UNL1       -0.0823
     25 C         139.7332  141.0503  163.1973 C.1     1  UNL1       -0.0459
     26 C         139.1277  140.8760  160.2642 C.3     1  UNL1        0.1084
     27 C         138.0051  140.0066  159.7805 C.3     1  UNL1        0.1562
     28 C         138.2490  140.8115  157.3223 C.3     1  UNL1        0.1741
     29 O         137.4079  140.2383  158.4242 O.3     1  UNL1       -0.3500
@<TRIPOS>BOND
     1    28    29    1
     2    29    27    1
     3    27    26    1
     4    26    24    1
     5    24    25    3
     6    25     1    1
     7     1     2   ar
     8     2     3    1
     9     2     4   ar
    10     4     5   ar
    11     5     6    1
    12     5     7   ar
    13     7     8   ar
    14     8    19    1
    15    19    20   am
    16    19    21    2
    17     8     9   ar
    18     9    10   ar
    19    10    11   ar
    20    12    11    1
    21    12    13    1
    22    13    14    1
    23    14    15    1
    24    15    16    1
    25    16    17    1
    26    11     1   ar
    27    17    12    1
    28    10     4   ar
    29    20    22    1
    30    20    23    1
    31    16    18    1
@<TRIPOS>MOLECULE
*****
 29 31 0 0 0
SMALL
GASTEIGER

@<TRIPOS>ATOM
      1 C         140.9535  143.1624  164.8261 C.ar    1  UNL1        0.1143
      2 C         140.2324  144.2760  164.1260 C.ar    1  UNL1        0.0850
      3 CL        139.1971  145.1753  164.7338 Cl      1  UNL1       -0.0799
      4 C         140.7284  144.3324  162.7115 C.ar    1  UNL1        0.0574
      5 C         140.3771  145.2266  161.5596 C.ar    1  UNL1        0.0631
      6 CL        139.3494  146.3053  161.7338 Cl      1  UNL1       -0.0821
      7 C         141.0534  145.0420  160.2335 C.ar    1  UNL1        0.0353
      8 C         142.0810  143.9633  160.0593 C.ar    1  UNL1        0.1366
      9 N         142.4323  143.0691  161.2112 N.ar    1  UNL1       -0.2236
     10 C         141.7560  143.2536  162.5373 C.ar    1  UNL1        0.1460
     11 N         141.8951  142.5306  163.8442 N.ar    1  UNL1       -0.3061
     12 C         142.8145  141.3781  164.1206 C.3     1  UNL1        0.1031
     13 C         144.2986  141.5556  163.9951 C.3     1  UNL1        0.0255
     14 C         145.2180  140.4031  164.2715 C.3     1  UNL1        0.0191
     15 C         144.6532  139.0729  164.6735 C.3     1  UNL1        0.0687
     16 N         143.1691  138.8952  164.7990 N.3     1  UNL1       -0.2959
     17 C         142.2497  140.0478  164.5226 C.3     1  UNL1        0.0914
     18 H         142.9882  138.5977  165.7577 H       1  UNL1        0.1233
     19 C         142.7573  143.7788  158.7331 C.2     1  UNL1        0.2606
     20 N         142.8200  144.9172  157.7584 N.am    1  UNL1       -0.3241
     21 O         143.3708  142.4559  158.3818 O.2     1  UNL1       -0.2687
     22 H         142.4173  145.7855  157.9891 H       1  UNL1        0.1453
     23 H         143.2639  144.7961  156.8881 H       1  UNL1        0.1453
     24 C         140.5783  142.3430  167.6875 C.1     1  UNL1       -0.0823
     25 C         140.7659  142.7527  166.2568 C.1     1  UNL1       -0.0459
     26 C         140.3907  141.9332  169.1182 C.3     1  UNL1        0.1084
     27 C         139.6566  140.6668  169.4455 C.3     1  UNL1        0.1562
     28 C         141.8910  139.4579  169.9900 C.3     1  UNL1        0.1741
     29 O         140.3929  139.5077  170.0493 O.3     1  UNL1       -0.3500
@<TRIPOS>BOND
     1    28    29    1
     2    29    27    1
     3    27    26    1
     4    26    24    1
     5    24    25    3
     6    25     1    1
     7     1     2   ar
     8     2     3    1
     9     2     4   ar
    10     4     5   ar
    11     5     6    1
    12     5     7   ar
    13     7     8   ar
    14     8    19    1
    15    19    20   am
    16    19    21    2
    17     8     9   ar
    18     9    10   ar
    19    10    11   ar
    20    12    11    1
    21    12    13    1
    22    13    14    1
    23    14    15    1
    24    15    16    1
    25    16    17    1
    26    11     1   ar
    27    17    12    1
    28    10     4   ar
    29    20    22    1
    30    20    23    1
    31    16    18    1
@<TRIPOS>MOLECULE
*****
 29 31 0 0 0
SMALL
GASTEIGER

@<TRIPOS>ATOM
      1 C         141.0096  142.2978  164.4240 C.ar    1  UNL1        0.1143
      2 C         140.5365  142.9929  165.6662 C.ar    1  UNL1        0.0850
      3 CL        139.6941  144.2330  165.7160 Cl      1  UNL1       -0.0799
      4 C         141.0537  142.2303  166.8498 C.ar    1  UNL1        0.0574
      5 C         140.9053  142.4473  168.3265 C.ar    1  UNL1        0.0631
      6 CL        140.1125  143.6138  168.8371 Cl      1  UNL1       -0.0821
      7 C         141.5496  141.4979  169.2926 C.ar    1  UNL1        0.0353
      8 C         142.3423  140.3314  168.7819 C.ar    1  UNL1        0.1366
      9 N         142.4908  140.1143  167.3052 N.ar    1  UNL1       -0.2236
     10 C         141.8465  141.0638  166.3391 C.ar    1  UNL1        0.1460
     11 N         141.8192  141.1055  164.8399 N.ar    1  UNL1       -0.3061
     12 C         142.4848  140.1268  163.9184 C.3     1  UNL1        0.1031
     13 C         141.6939  138.9996  163.3235 C.3     1  UNL1        0.0255
     14 C         142.3594  138.0209  162.4020 C.3     1  UNL1        0.0191
     15 C         143.8159  138.1693  162.0755 C.3     1  UNL1        0.0687
     16 N         144.6068  139.2964  162.6704 N.3     1  UNL1       -0.2959
     17 C         143.9413  140.2752  163.5919 C.3     1  UNL1        0.0914
     18 H         144.9836  139.8354  161.8907 H       1  UNL1        0.1233
     19 C         142.9866  139.3819  169.7481 C.2     1  UNL1        0.2606
     20 N         143.3340  139.8419  171.1329 N.am    1  UNL1       -0.3241
     21 O         143.2836  137.9725  169.3294 O.2     1  UNL1       -0.2687
     22 H         143.1391  140.7669  171.4077 H       1  UNL1        0.1453
     23 H         143.7569  139.2187  171.7670 H       1  UNL1        0.1453
     24 C         140.4371  143.1435  161.6032 C.1     1  UNL1       -0.0823
     25 C         140.7233  142.7206  163.0136 C.1     1  UNL1       -0.0459
     26 C         140.1508  143.5664  160.1928 C.3     1  UNL1        0.1084
     27 C         140.4450  144.9710  159.7566 C.3     1  UNL1        0.1562
     28 C         141.9705  145.8296  157.8367 C.3     1  UNL1        0.1741
     29 O         141.8079  145.3262  159.2404 O.3     1  UNL1       -0.3500
@<TRIPOS>BOND
     1    28    29    1
     2    29    27    1
     3    27    26    1
     4    26    24    1
     5    24    25    3
     6    25     1    1
     7     1     2   ar
     8     2     3    1
     9     2     4   ar
    10     4     5   ar
    11     5     6    1
    12     5     7   ar
    13     7     8   ar
    14     8    19    1
    15    19    20   am
    16    19    21    2
    17     8     9   ar
    18     9    10   ar
    19    10    11   ar
    20    12    11    1
    21    12    13    1
    22    13    14    1
    23    14    15    1
    24    15    16    1
    25    16    17    1
    26    11     1   ar
    27    17    12    1
    28    10     4   ar
    29    20    22    1
    30    20    23    1
    31    16    18    1
@<TRIPOS>MOLECULE
*****
 29 31 0 0 0
SMALL
GASTEIGER

@<TRIPOS>ATOM
      1 C         141.2019  140.3088  164.8800 C.ar    1  UNL1        0.1143
      2 C         141.8287  139.6281  166.0607 C.ar    1  UNL1        0.0850
      3 CL        142.6244  138.3571  166.0257 Cl      1  UNL1       -0.0799
      4 C         141.5201  140.4417  167.2825 C.ar    1  UNL1        0.0574
      5 C         141.8778  140.2578  168.7275 C.ar    1  UNL1        0.0631
      6 CL        142.6954  139.0743  169.1530 Cl      1  UNL1       -0.0821
      7 C         141.4181  141.2573  169.7471 C.ar    1  UNL1        0.0353
      8 C         140.6006  142.4408  169.3216 C.ar    1  UNL1        0.1366
      9 N         140.2428  142.6247  167.8765 N.ar    1  UNL1       -0.2236
     10 C         140.7025  141.6252  166.8570 C.ar    1  UNL1        0.1460
     11 N         140.5059  141.5430  165.3722 N.ar    1  UNL1       -0.3061
     12 C         139.7466  142.5231  164.5279 C.3     1  UNL1        0.1031
     13 C         140.2427  143.9312  164.3837 C.3     1  UNL1        0.0255
     14 C         139.4834  144.9112  163.5393 C.3     1  UNL1        0.0191
     15 C         138.2279  144.4831  162.8391 C.3     1  UNL1        0.0687
     16 N         137.7317  143.0749  162.9832 N.3     1  UNL1       -0.2959
     17 C         138.4910  142.0949  163.8276 C.3     1  UNL1        0.0914
     18 H         137.6866  142.6810  162.0435 H       1  UNL1        0.1233
     19 C         140.1408  143.4404  170.3412 C.2     1  UNL1        0.2606
     20 N         139.0495  143.0805  171.3053 N.am    1  UNL1       -0.3241
     21 O         140.7724  144.7998  170.3966 O.2     1  UNL1       -0.2687
     22 H         138.6350  142.1883  171.2689 H       1  UNL1        0.1453
     23 H         138.7478  143.7366  171.9745 H       1  UNL1        0.1453
     24 C         141.3197  139.3669  162.0341 C.1     1  UNL1       -0.0823
     25 C         141.2608  139.8379  163.4571 C.1     1  UNL1       -0.0459
     26 C         141.3786  138.8960  160.6112 C.3     1  UNL1        0.1084
     27 C         140.2014  139.1002  159.7043 C.3     1  UNL1        0.1562
     28 C         137.8089  140.1050  159.5757 C.3     1  UNL1        0.1741
     29 O         138.8272  139.2613  160.2838 O.3     1  UNL1       -0.3500
@<TRIPOS>BOND
     1    28    29    1
     2    29    27    1
     3    27    26    1
     4    26    24    1
     5    24    25    3
     6    25     1    1
     7     1     2   ar
     8     2     3    1
     9     2     4   ar
    10     4     5   ar
    11     5     6    1
    12     5     7   ar
    13     7     8   ar
    14     8    19    1
    15    19    20   am
    16    19    21    2
    17     8     9   ar
    18     9    10   ar
    19    10    11   ar
    20    12    11    1
    21    12    13    1
    22    13    14    1
    23    14    15    1
    24    15    16    1
    25    16    17    1
    26    11     1   ar
    27    17    12    1
    28    10     4   ar
    29    20    22    1
    30    20    23    1
    31    16    18    1
