@<TRIPOS>MOLECULE
*****
 34 38 0 0 0
SMALL
GASTEIGER

@<TRIPOS>ATOM
      1 C         139.1054  141.7095  163.2866 C.ar    1  UNL1        0.0327
      2 C         137.8543  142.3732  162.7924 C.ar    1  UNL1        0.1001
      3 N         137.7778  142.8721  161.3798 N.ar    1  UNL1       -0.2420
      4 C         138.9523  142.7072  160.4614 C.ar    1  UNL1        0.1078
      5 C         140.2034  142.0435  160.9557 C.ar    1  UNL1        0.1207
      6 C         140.2799  141.5446  162.3682 C.ar    1  UNL1        0.0583
      7 C         141.3779  141.8786  160.0374 C.2     1  UNL1        0.3780
      8 N         142.5353  142.8239  159.9078 N.2     1  UNL1       -0.0308
      9 C         143.4739  142.2689  158.8777 C.2     1  UNL1        0.2318
     10 C         144.7797  142.7703  158.3360 C.2     1  UNL1        0.0456
     11 C         145.5083  141.9832  157.2872 C.2     1  UNL1       -0.0219
     12 C         146.8141  142.4846  156.7454 C.3     1  UNL1        0.0308
     13 C         144.9310  140.6950  156.7802 C.2     1  UNL1       -0.0222
     14 C         143.6252  140.1937  157.3220 C.3     1  UNL1        0.0915
     15 C         143.0479  138.9054  156.8150 C.3     1  UNL1        0.0135
     16 C         142.8967  140.9806  158.3707 C.2     1  UNL1        0.2170
     17 N         141.6012  140.7394  159.0874 N.2     1  UNL1       -0.0347
     18 N         141.5310  140.8808  162.8624 N.pl3   1  UNL1       -0.3071
     19 C         142.6570  141.7111  163.4034 C.3     1  UNL1        0.0921
     20 C         143.9081  141.0474  163.8976 C.3     1  UNL1        0.0369
     21 C         144.0332  139.5534  163.8509 C.3     1  UNL1        0.0542
     22 N         145.2842  138.8896  164.3451 N.3     1  UNL1       -0.3221
     23 C         142.9071  138.7230  163.3099 C.3     1  UNL1        0.0369
     24 C         141.6561  139.3867  162.8157 C.3     1  UNL1        0.0921
     25 H         145.1973  137.8788  164.2396 H       1  UNL1        0.1188
     26 H         145.4242  139.1179  165.3294 H       1  UNL1        0.1188
     27 C         137.7535  138.2437  166.9144 C.3     1  UNL1        0.0310
     28 C         138.5060  139.4776  166.5129 C.ar    1  UNL1       -0.0222
     29 C         139.3351  140.2126  167.5241 C.ar    1  UNL1       -0.0085
     30 C         140.0876  141.4466  167.1227 C.ar    1  UNL1       -0.0222
     31 C         140.9166  142.1816  168.1339 C.3     1  UNL1        0.0310
     32 C         140.0110  141.9456  165.7102 C.ar    1  UNL1       -0.0042
     33 C         139.1820  141.2106  164.6991 C.ar    1  UNL1        0.0021
     34 C         138.4295  139.9766  165.1004 C.ar    1  UNL1       -0.0042
@<TRIPOS>BOND
     1    27    28    1
     2    28    29   ar
     3    29    30   ar
     4    30    31    1
     5    30    32   ar
     6    32    33   ar
     7    33     1    1
     8     1     2   ar
     9     2     3   ar
    10     3     4   ar
    11     4     5   ar
    12     5     7    1
    13     7     8    2
    14     8     9    1
    15     9    10    2
    16    10    11    1
    17    11    12    1
    18    11    13    2
    19    13    14    1
    20    14    15    1
    21    14    16    1
    22    16    17    2
    23     5     6   ar
    24     6    18    1
    25    18    19    1
    26    19    20    1
    27    20    21    1
    28    21    22    1
    29    21    23    1
    30    23    24    1
    31    33    34   ar
    32    34    28   ar
    33     6     1   ar
    34    24    18    1
    35    17     7    1
    36    16     9    1
    37    22    25    1
    38    22    26    1
@<TRIPOS>MOLECULE
*****
 34 38 0 0 0
SMALL
GASTEIGER

@<TRIPOS>ATOM
      1 C         139.1077  141.7131  163.2803 C.ar    1  UNL1        0.0327
      2 C         137.8559  142.3744  162.7848 C.ar    1  UNL1        0.1001
      3 N         137.7786  142.8702  161.3712 N.ar    1  UNL1       -0.2420
      4 C         138.9532  142.7047  160.4531 C.ar    1  UNL1        0.1078
      5 C         140.2051  142.0434  160.9485 C.ar    1  UNL1        0.1207
      6 C         140.2823  141.5477  162.3621 C.ar    1  UNL1        0.0583
      7 C         141.3797  141.8780  160.0304 C.2     1  UNL1        0.3780
      8 N         142.5365  142.8238  159.8995 N.2     1  UNL1       -0.0308
      9 C         143.4755  142.2679  158.8703 C.2     1  UNL1        0.2318
     10 C         144.7810  142.7693  158.3278 C.2     1  UNL1        0.0456
     11 C         145.5099  141.9812  157.2800 C.2     1  UNL1       -0.0219
     12 C         146.8155  142.4826  156.7375 C.3     1  UNL1        0.0308
     13 C         144.9334  140.6920  156.7749 C.2     1  UNL1       -0.0222
     14 C         143.6279  140.1906  157.3174 C.3     1  UNL1        0.0915
     15 C         143.0514  138.9013  156.8121 C.3     1  UNL1        0.0135
     16 C         142.8990  140.9786  158.3650 C.2     1  UNL1        0.2170
     17 N         141.6037  140.7376  159.0821 N.2     1  UNL1       -0.0347
     18 N         141.5342  140.8864  162.8576 N.pl3   1  UNL1       -0.3071
     19 C         142.6591  141.7190  163.3972 C.3     1  UNL1        0.0921
     20 C         143.9110  141.0578  163.8927 C.3     1  UNL1        0.0369
     21 C         144.0380  139.5638  163.8486 C.3     1  UNL1        0.0542
     22 N         145.2899  138.9026  164.3440 N.3     1  UNL1       -0.3221
     23 C         142.9131  138.7311  163.3089 C.3     1  UNL1        0.0369
     24 C         141.6613  139.3924  162.8135 C.3     1  UNL1        0.0921
     25 H         145.2043  137.8915  164.2403 H       1  UNL1        0.1188
     26 H         145.4295  139.1328  165.3279 H       1  UNL1        0.1188
     27 C         140.9197  142.1975  168.1261 C.3     1  UNL1        0.0310
     28 C         140.0911  141.4595  167.1167 C.ar    1  UNL1       -0.0222
     29 C         139.3399  140.2258  167.5210 C.ar    1  UNL1       -0.0085
     30 C         138.5113  139.4877  166.5116 C.ar    1  UNL1       -0.0222
     31 C         137.7600  138.2540  166.9159 C.3     1  UNL1        0.0310
     32 C         138.4339  139.9835  165.0981 C.ar    1  UNL1       -0.0042
     33 C         139.1851  141.2173  164.6938 C.ar    1  UNL1        0.0021
     34 C         140.0137  141.9553  165.7031 C.ar    1  UNL1       -0.0042
@<TRIPOS>BOND
     1    27    28    1
     2    28    29   ar
     3    29    30   ar
     4    30    31    1
     5    30    32   ar
     6    32    33   ar
     7    33     1    1
     8     1     2   ar
     9     2     3   ar
    10     3     4   ar
    11     4     5   ar
    12     5     7    1
    13     7     8    2
    14     8     9    1
    15     9    10    2
    16    10    11    1
    17    11    12    1
    18    11    13    2
    19    13    14    1
    20    14    15    1
    21    14    16    1
    22    16    17    2
    23     5     6   ar
    24     6    18    1
    25    18    19    1
    26    19    20    1
    27    20    21    1
    28    21    22    1
    29    21    23    1
    30    23    24    1
    31    33    34   ar
    32    34    28   ar
    33     6     1   ar
    34    24    18    1
    35    17     7    1
    36    16     9    1
    37    22    25    1
    38    22    26    1
@<TRIPOS>MOLECULE
*****
 34 38 0 0 0
SMALL
GASTEIGER

@<TRIPOS>ATOM
      1 C         141.9550  140.0241  167.1786 C.ar    1  UNL1        0.0327
      2 C         142.9966  139.0366  167.6144 C.ar    1  UNL1        0.1001
      3 N         143.8824  138.3824  166.5960 N.ar    1  UNL1       -0.2420
      4 C         143.7267  138.7155  165.1417 C.ar    1  UNL1        0.1078
      5 C         142.6851  139.7030  164.7059 C.ar    1  UNL1        0.1207
      6 C         141.7993  140.3573  165.7243 C.ar    1  UNL1        0.0583
      7 C         142.5293  140.0362  163.2517 C.2     1  UNL1        0.3780
      8 N         143.3317  141.0477  162.4881 N.2     1  UNL1       -0.0308
      9 C         142.8421  141.0530  161.0703 C.2     1  UNL1        0.2318
     10 C         143.2597  141.8456  159.8672 C.2     1  UNL1        0.0456
     11 C         142.5722  141.6301  158.5515 C.2     1  UNL1       -0.0219
     12 C         142.9898  142.4228  157.3484 C.3     1  UNL1        0.0308
     13 C         141.4673  140.6220  158.4389 C.2     1  UNL1       -0.0222
     14 C         141.0497  139.8294  159.6420 C.3     1  UNL1        0.0915
     15 C         139.9447  138.8213  159.5293 C.3     1  UNL1        0.0135
     16 C         141.7371  140.0449  160.9576 C.2     1  UNL1        0.2170
     17 N         141.5438  139.4165  162.3059 N.2     1  UNL1       -0.0347
     18 N         140.7577  141.3447  165.2886 N.pl3   1  UNL1       -0.3071
     19 C         141.1261  142.7852  165.0904 C.3     1  UNL1        0.0921
     20 C         140.0845  143.7727  164.6546 C.3     1  UNL1        0.0369
     21 C         138.6744  143.3198  164.4170 C.3     1  UNL1        0.0542
     22 N         137.6328  144.3073  163.9812 N.3     1  UNL1       -0.3221
     23 C         138.3059  141.8793  164.6151 C.3     1  UNL1        0.0369
     24 C         139.3475  140.8918  165.0509 C.3     1  UNL1        0.0921
     25 H         136.7384  143.8302  163.8678 H       1  UNL1        0.1188
     26 H         137.9105  144.7247  163.0929 H       1  UNL1        0.1188
     27 C         140.7027  144.1652  170.0567 C.3     1  UNL1        0.0310
     28 C         140.4430  142.7490  169.6359 C.ar    1  UNL1       -0.0222
     29 C         139.2975  141.9872  170.2337 C.ar    1  UNL1       -0.0085
     30 C         139.0377  140.5710  169.8130 C.ar    1  UNL1       -0.0222
     31 C         137.8921  139.8092  170.4107 C.3     1  UNL1        0.0310
     32 C         139.9235  139.9166  168.7947 C.ar    1  UNL1       -0.0042
     33 C         141.0691  140.6784  168.1969 C.ar    1  UNL1        0.0021
     34 C         141.3289  142.0946  168.6176 C.ar    1  UNL1       -0.0042
@<TRIPOS>BOND
     1    27    28    1
     2    28    29   ar
     3    29    30   ar
     4    30    31    1
     5    30    32   ar
     6    32    33   ar
     7    33     1    1
     8     1     2   ar
     9     2     3   ar
    10     3     4   ar
    11     4     5   ar
    12     5     7    1
    13     7     8    2
    14     8     9    1
    15     9    10    2
    16    10    11    1
    17    11    12    1
    18    11    13    2
    19    13    14    1
    20    14    15    1
    21    14    16    1
    22    16    17    2
    23     5     6   ar
    24     6    18    1
    25    18    19    1
    26    19    20    1
    27    20    21    1
    28    21    22    1
    29    21    23    1
    30    23    24    1
    31    33    34   ar
    32    34    28   ar
    33     6     1   ar
    34    24    18    1
    35    17     7    1
    36    16     9    1
    37    22    25    1
    38    22    26    1
@<TRIPOS>MOLECULE
*****
 34 38 0 0 0
SMALL
GASTEIGER

@<TRIPOS>ATOM
      1 C         141.9200  140.0102  167.0738 C.ar    1  UNL1        0.0327
      2 C         142.9640  139.0087  167.4698 C.ar    1  UNL1        0.1001
      3 N         143.8113  138.3535  166.4198 N.ar    1  UNL1       -0.2420
      4 C         143.6146  138.6996  164.9735 C.ar    1  UNL1        0.1078
      5 C         142.5705  139.7011  164.5774 C.ar    1  UNL1        0.1207
      6 C         141.7232  140.3564  165.6275 C.ar    1  UNL1        0.0583
      7 C         142.3737  140.0473  163.1313 C.2     1  UNL1        0.3780
      8 N         141.2521  139.5726  162.2557 N.2     1  UNL1       -0.0308
      9 C         141.4493  140.1609  160.8901 C.2     1  UNL1        0.2318
     10 C         140.6571  140.0416  159.6219 C.2     1  UNL1        0.0456
     11 C         141.1085  140.7607  158.3853 C.2     1  UNL1       -0.0219
     12 C         140.3163  140.6413  157.1170 C.3     1  UNL1        0.0308
     13 C         142.3519  141.5990  158.4168 C.2     1  UNL1       -0.0222
     14 C         143.1440  141.7184  159.6850 C.3     1  UNL1        0.0915
     15 C         144.3874  142.5567  159.7165 C.3     1  UNL1        0.0135
     16 C         142.6927  140.9993  160.9216 C.2     1  UNL1        0.2170
     17 N         143.2641  140.9291  162.3068 N.2     1  UNL1       -0.0347
     18 N         140.6792  141.3579  165.2314 N.pl3   1  UNL1       -0.3071
     19 C         139.2597  140.9195  165.0243 C.3     1  UNL1        0.0921
     20 C         138.2156  141.9210  164.6282 C.3     1  UNL1        0.0369
     21 C         138.5909  143.3609  164.4392 C.3     1  UNL1        0.0542
     22 N         137.5468  144.3624  164.0431 N.3     1  UNL1       -0.3221
     23 C         140.0104  143.7994  164.6463 C.3     1  UNL1        0.0369
     24 C         141.0545  142.7979  165.0424 C.3     1  UNL1        0.0921
     25 H         137.9745  145.2846  163.9600 H       1  UNL1        0.1188
     26 H         136.8151  144.3896  164.7532 H       1  UNL1        0.1188
     27 C         140.8256  144.1267  170.0498 C.3     1  UNL1        0.0310
     28 C         140.5255  142.7238  169.6117 C.ar    1  UNL1       -0.0222
     29 C         139.3781  141.9764  170.2238 C.ar    1  UNL1       -0.0085
     30 C         139.0779  140.5735  169.7858 C.ar    1  UNL1       -0.0222
     31 C         137.9304  139.8260  170.3978 C.3     1  UNL1        0.0310
     32 C         139.9252  139.9181  168.7358 C.ar    1  UNL1       -0.0042
     33 C         141.0726  140.6656  168.1237 C.ar    1  UNL1        0.0021
     34 C         141.3728  142.0684  168.5617 C.ar    1  UNL1       -0.0042
@<TRIPOS>BOND
     1    27    28    1
     2    28    29   ar
     3    29    30   ar
     4    30    31    1
     5    30    32   ar
     6    32    33   ar
     7    33     1    1
     8     1     2   ar
     9     2     3   ar
    10     3     4   ar
    11     4     5   ar
    12     5     7    1
    13     7     8    2
    14     8     9    1
    15     9    10    2
    16    10    11    1
    17    11    12    1
    18    11    13    2
    19    13    14    1
    20    14    15    1
    21    14    16    1
    22    16    17    2
    23     5     6   ar
    24     6    18    1
    25    18    19    1
    26    19    20    1
    27    20    21    1
    28    21    22    1
    29    21    23    1
    30    23    24    1
    31    33    34   ar
    32    34    28   ar
    33     6     1   ar
    34    24    18    1
    35    17     7    1
    36    16     9    1
    37    22    25    1
    38    22    26    1
@<TRIPOS>MOLECULE
*****
 34 38 0 0 0
SMALL
GASTEIGER

@<TRIPOS>ATOM
      1 C         139.7138  142.5625  161.4304 C.ar    1  UNL1        0.0327
      2 C         138.2252  142.6704  161.2806 C.ar    1  UNL1        0.1001
      3 N         137.3355  142.4752  162.4723 N.ar    1  UNL1       -0.2420
      4 C         137.9342  142.1721  163.8139 C.ar    1  UNL1        0.1078
      5 C         139.4228  142.0642  163.9636 C.ar    1  UNL1        0.1207
      6 C         140.3126  142.2594  162.7719 C.ar    1  UNL1        0.0583
      7 C         140.0216  141.7611  165.3051 C.2     1  UNL1        0.3780
      8 N         140.7408  140.5008  165.6852 N.2     1  UNL1       -0.0308
      9 C         141.1700  140.6260  167.1170 C.2     1  UNL1        0.2318
     10 C         141.9156  139.6947  168.0263 C.2     1  UNL1        0.0456
     11 C         142.2072  140.1011  169.4405 C.2     1  UNL1       -0.0219
     12 C         142.9528  139.1698  170.3499 C.3     1  UNL1        0.0308
     13 C         141.7533  141.4386  169.9453 C.2     1  UNL1       -0.0222
     14 C         141.0078  142.3699  169.0360 C.3     1  UNL1        0.0915
     15 C         140.5539  143.7075  169.5408 C.3     1  UNL1        0.0135
     16 C         140.7161  141.9636  167.6218 C.2     1  UNL1        0.2170
     17 N         140.0064  142.6651  166.5020 N.2     1  UNL1       -0.0347
     18 N         141.8011  142.1514  162.9217 N.pl3   1  UNL1       -0.3071
     19 C         142.4773  140.8229  162.7553 C.3     1  UNL1        0.0921
     20 C         143.9659  140.7149  162.9051 C.3     1  UNL1        0.0369
     21 C         144.7784  141.9355  163.2212 C.3     1  UNL1        0.0542
     22 N         146.2670  141.8276  163.3709 N.3     1  UNL1       -0.3221
     23 C         144.1023  143.2642  163.3875 C.3     1  UNL1        0.0369
     24 C         142.6137  143.3721  163.2378 C.3     1  UNL1        0.0921
     25 H         146.6548  142.7467  163.5834 H       1  UNL1        0.1188
     26 H         146.6719  141.4805  162.5015 H       1  UNL1        0.1188
     27 C         142.7905  140.5844  157.7397 C.3     1  UNL1        0.0310
     28 C         142.1420  141.7685  158.3934 C.ar    1  UNL1       -0.0222
     29 C         142.3833  143.1477  157.8554 C.ar    1  UNL1       -0.0085
     30 C         141.7349  144.3319  158.5090 C.ar    1  UNL1       -0.0222
     31 C         141.9762  145.7111  157.9710 C.3     1  UNL1        0.0310
     32 C         140.8450  144.1368  159.7007 C.ar    1  UNL1       -0.0042
     33 C         140.6036  142.7576  160.2387 C.ar    1  UNL1        0.0021
     34 C         141.2521  141.5735  159.5851 C.ar    1  UNL1       -0.0042
@<TRIPOS>BOND
     1    27    28    1
     2    28    29   ar
     3    29    30   ar
     4    30    31    1
     5    30    32   ar
     6    32    33   ar
     7    33     1    1
     8     1     2   ar
     9     2     3   ar
    10     3     4   ar
    11     4     5   ar
    12     5     7    1
    13     7     8    2
    14     8     9    1
    15     9    10    2
    16    10    11    1
    17    11    12    1
    18    11    13    2
    19    13    14    1
    20    14    15    1
    21    14    16    1
    22    16    17    2
    23     5     6   ar
    24     6    18    1
    25    18    19    1
    26    19    20    1
    27    20    21    1
    28    21    22    1
    29    21    23    1
    30    23    24    1
    31    33    34   ar
    32    34    28   ar
    33     6     1   ar
    34    24    18    1
    35    17     7    1
    36    16     9    1
    37    22    25    1
    38    22    26    1
@<TRIPOS>MOLECULE
*****
 34 38 0 0 0
SMALL
GASTEIGER

@<TRIPOS>ATOM
      1 C         142.4293  142.5261  166.1793 C.ar    1  UNL1        0.0327
      2 C         143.7999  142.8973  166.6627 C.ar    1  UNL1        0.1001
      3 N         144.7706  143.5586  165.7298 N.ar    1  UNL1       -0.2420
      4 C         144.3708  143.8488  164.3134 C.ar    1  UNL1        0.1078
      5 C         143.0002  143.4776  163.8300 C.ar    1  UNL1        0.1207
      6 C         142.0295  142.8163  164.7630 C.ar    1  UNL1        0.0583
      7 C         142.6003  143.7678  162.4137 C.2     1  UNL1        0.3780
      8 N         141.5656  144.7614  161.9757 N.2     1  UNL1       -0.0308
      9 C         141.4908  144.7229  160.4780 C.2     1  UNL1        0.2318
     10 C         140.6503  145.4829  159.4952 C.2     1  UNL1        0.0456
     11 C         140.7983  145.2254  158.0249 C.2     1  UNL1       -0.0219
     12 C         139.9577  145.9854  157.0420 C.3     1  UNL1        0.0308
     13 C         141.7867  144.2079  157.5374 C.2     1  UNL1       -0.0222
     14 C         142.6272  143.4479  158.5202 C.3     1  UNL1        0.0915
     15 C         143.6157  142.4304  158.0327 C.3     1  UNL1        0.0135
     16 C         142.4793  143.7054  159.9905 C.2     1  UNL1        0.2170
     17 N         143.1650  143.1151  161.1869 N.2     1  UNL1       -0.0347
     18 N         140.6589  142.4451  164.2796 N.pl3   1  UNL1       -0.3071
     19 C         139.4898  143.3340  164.5846 C.3     1  UNL1        0.0921
     20 C         138.1192  142.9628  164.1012 C.3     1  UNL1        0.0369
     21 C         137.9176  141.7028  163.3128 C.3     1  UNL1        0.0542
     22 N         136.5471  141.3316  162.8294 N.3     1  UNL1       -0.3221
     23 C         139.0867  140.8138  163.0077 C.3     1  UNL1        0.0369
     24 C         140.4573  141.1850  163.4911 C.3     1  UNL1        0.0921
     25 H         136.5945  140.4520  162.3151 H       1  UNL1        0.1188
     26 H         136.1926  142.0654  162.2160 H       1  UNL1        0.1188
     27 C         140.3281  142.0778  170.9105 C.3     1  UNL1        0.0310
     28 C         140.4080  141.6407  169.4778 C.ar    1  UNL1       -0.0222
     29 C         139.5171  140.5423  168.9780 C.ar    1  UNL1       -0.0085
     30 C         139.5969  140.1052  167.5453 C.ar    1  UNL1       -0.0222
     31 C         138.7060  139.0068  167.0456 C.3     1  UNL1        0.0310
     32 C         140.5676  140.7664  166.6124 C.ar    1  UNL1       -0.0042
     33 C         141.4586  141.8648  167.1121 C.ar    1  UNL1        0.0021
     34 C         141.3788  142.3020  168.5448 C.ar    1  UNL1       -0.0042
@<TRIPOS>BOND
     1    27    28    1
     2    28    29   ar
     3    29    30   ar
     4    30    31    1
     5    30    32   ar
     6    32    33   ar
     7    33     1    1
     8     1     2   ar
     9     2     3   ar
    10     3     4   ar
    11     4     5   ar
    12     5     7    1
    13     7     8    2
    14     8     9    1
    15     9    10    2
    16    10    11    1
    17    11    12    1
    18    11    13    2
    19    13    14    1
    20    14    15    1
    21    14    16    1
    22    16    17    2
    23     5     6   ar
    24     6    18    1
    25    18    19    1
    26    19    20    1
    27    20    21    1
    28    21    22    1
    29    21    23    1
    30    23    24    1
    31    33    34   ar
    32    34    28   ar
    33     6     1   ar
    34    24    18    1
    35    17     7    1
    36    16     9    1
    37    22    25    1
    38    22    26    1
@<TRIPOS>MOLECULE
*****
 34 38 0 0 0
SMALL
GASTEIGER

@<TRIPOS>ATOM
      1 C         143.3088  141.6468  161.4941 C.ar    1  UNL1        0.0327
      2 C         144.8025  141.7217  161.3794 C.ar    1  UNL1        0.1001
      3 N         145.6477  141.7796  162.6173 N.ar    1  UNL1       -0.2420
      4 C         144.9993  141.7627  163.9698 C.ar    1  UNL1        0.1078
      5 C         143.5056  141.6879  164.0845 C.ar    1  UNL1        0.1207
      6 C         142.6604  141.6299  162.8467 C.ar    1  UNL1        0.0583
      7 C         142.8571  141.6710  165.4369 C.2     1  UNL1        0.3780
      8 N         141.9714  142.7408  166.0035 N.2     1  UNL1       -0.0308
      9 C         141.5474  142.3122  167.3770 C.2     1  UNL1        0.2318
     10 C         140.6740  142.9649  168.4071 C.2     1  UNL1        0.0456
     11 C         140.4243  142.2829  169.7196 C.2     1  UNL1       -0.0219
     12 C         139.5508  142.9356  170.7498 C.3     1  UNL1        0.0308
     13 C         141.0478  140.9482  170.0018 C.2     1  UNL1       -0.0222
     14 C         141.9212  140.2955  168.9717 C.3     1  UNL1        0.0915
     15 C         142.5448  138.9608  169.2541 C.3     1  UNL1        0.0135
     16 C         142.1710  140.9775  167.6593 C.2     1  UNL1        0.2170
     17 N         142.9805  140.5812  166.4603 N.2     1  UNL1       -0.0347
     18 N         141.1666  141.5551  162.9613 N.pl3   1  UNL1       -0.3071
     19 C         140.3465  142.8099  162.9077 C.3     1  UNL1        0.0921
     20 C         138.8528  142.7351  163.0224 C.3     1  UNL1        0.0369
     21 C         138.1791  141.4055  163.1907 C.3     1  UNL1        0.0542
     22 N         136.6854  141.3307  163.3053 N.3     1  UNL1       -0.3221
     23 C         138.9992  140.1506  163.2443 C.3     1  UNL1        0.0369
     24 C         140.4929  140.2255  163.1296 C.3     1  UNL1        0.0921
     25 H         136.4010  140.3571  163.4134 H       1  UNL1        0.1188
     26 H         136.2599  141.7176  162.4629 H       1  UNL1        0.1188
     27 C         140.7866  138.8773  157.8929 C.3     1  UNL1        0.0310
     28 C         141.2024  140.2041  158.4558 C.ar    1  UNL1       -0.0222
     29 C         140.7728  141.4729  157.7809 C.ar    1  UNL1       -0.0085
     30 C         141.1885  142.7997  158.3437 C.ar    1  UNL1       -0.0222
     31 C         140.7589  144.0685  157.6687 C.3     1  UNL1        0.0310
     32 C         142.0339  142.8577  159.5814 C.ar    1  UNL1       -0.0042
     33 C         142.4635  141.5889  160.2564 C.ar    1  UNL1        0.0021
     34 C         142.0477  140.2621  159.6936 C.ar    1  UNL1       -0.0042
@<TRIPOS>BOND
     1    27    28    1
     2    28    29   ar
     3    29    30   ar
     4    30    31    1
     5    30    32   ar
     6    32    33   ar
     7    33     1    1
     8     1     2   ar
     9     2     3   ar
    10     3     4   ar
    11     4     5   ar
    12     5     7    1
    13     7     8    2
    14     8     9    1
    15     9    10    2
    16    10    11    1
    17    11    12    1
    18    11    13    2
    19    13    14    1
    20    14    15    1
    21    14    16    1
    22    16    17    2
    23     5     6   ar
    24     6    18    1
    25    18    19    1
    26    19    20    1
    27    20    21    1
    28    21    22    1
    29    21    23    1
    30    23    24    1
    31    33    34   ar
    32    34    28   ar
    33     6     1   ar
    34    24    18    1
    35    17     7    1
    36    16     9    1
    37    22    25    1
    38    22    26    1
@<TRIPOS>MOLECULE
*****
 34 38 0 0 0
SMALL
GASTEIGER

@<TRIPOS>ATOM
      1 C         139.5203  141.9602  164.5029 C.ar    1  UNL1        0.0327
      2 C         138.0218  142.0236  164.4822 C.ar    1  UNL1        0.1001
      3 N         137.2978  142.2317  163.1850 N.ar    1  UNL1       -0.2420
      4 C         138.0723  142.3763  161.9086 C.ar    1  UNL1        0.1078
      5 C         139.5708  142.3128  161.9293 C.ar    1  UNL1        0.1207
      6 C         140.2947  142.1048  163.2264 C.ar    1  UNL1        0.0583
      7 C         140.3453  142.4574  160.6529 C.2     1  UNL1        0.3780
      8 N         140.9265  141.3369  159.8425 N.2     1  UNL1       -0.0308
      9 C         141.6150  141.9350  158.6516 C.2     1  UNL1        0.2318
     10 C         142.3637  141.3151  157.5091 C.2     1  UNL1        0.0456
     11 C         142.9566  142.1855  156.4408 C.2     1  UNL1       -0.0219
     12 C         143.7052  141.5657  155.2982 C.3     1  UNL1        0.0308
     13 C         142.8008  143.6754  156.5151 C.2     1  UNL1       -0.0222
     14 C         142.0522  144.2952  157.6577 C.3     1  UNL1        0.0915
     15 C         141.8965  145.7853  157.7320 C.3     1  UNL1        0.0135
     16 C         141.4593  143.4250  158.7259 C.2     1  UNL1        0.2170
     17 N         140.6746  143.7479  159.9628 N.2     1  UNL1       -0.0347
     18 N         141.7932  142.0414  163.2472 N.pl3   1  UNL1       -0.3071
     19 C         142.4935  140.7495  162.9461 C.3     1  UNL1        0.0921
     20 C         143.9920  140.6861  162.9669 C.3     1  UNL1        0.0369
     21 C         144.7903  141.9145  163.2886 C.3     1  UNL1        0.0542
     22 N         146.2888  141.8511  163.3093 N.3     1  UNL1       -0.3221
     23 C         144.0902  143.2065  163.5896 C.3     1  UNL1        0.0369
     24 C         142.5917  143.2699  163.5689 C.3     1  UNL1        0.0921
     25 H         146.6648  142.7696  163.5446 H       1  UNL1        0.1188
     26 H         146.6300  141.5692  162.3903 H       1  UNL1        0.1188
     27 C         142.7844  139.1808  167.4389 C.3     1  UNL1        0.0310
     28 C         141.8764  140.3625  167.2679 C.ar    1  UNL1       -0.0222
     29 C         141.6925  141.3360  168.3941 C.ar    1  UNL1       -0.0085
     30 C         140.7845  142.5177  168.2232 C.ar    1  UNL1       -0.0222
     31 C         140.6006  143.4913  169.3494 C.3     1  UNL1        0.0310
     32 C         140.0604  142.7258  166.9262 C.ar    1  UNL1       -0.0042
     33 C         140.2443  141.7522  165.8000 C.ar    1  UNL1        0.0021
     34 C         141.1523  140.5705  165.9709 C.ar    1  UNL1       -0.0042
@<TRIPOS>BOND
     1    27    28    1
     2    28    29   ar
     3    29    30   ar
     4    30    31    1
     5    30    32   ar
     6    32    33   ar
     7    33     1    1
     8     1     2   ar
     9     2     3   ar
    10     3     4   ar
    11     4     5   ar
    12     5     7    1
    13     7     8    2
    14     8     9    1
    15     9    10    2
    16    10    11    1
    17    11    12    1
    18    11    13    2
    19    13    14    1
    20    14    15    1
    21    14    16    1
    22    16    17    2
    23     5     6   ar
    24     6    18    1
    25    18    19    1
    26    19    20    1
    27    20    21    1
    28    21    22    1
    29    21    23    1
    30    23    24    1
    31    33    34   ar
    32    34    28   ar
    33     6     1   ar
    34    24    18    1
    35    17     7    1
    36    16     9    1
    37    22    25    1
    38    22    26    1
@<TRIPOS>MOLECULE
*****
 34 38 0 0 0
SMALL
GASTEIGER

@<TRIPOS>ATOM
      1 C         142.4026  140.1770  160.5653 C.ar    1  UNL1        0.0327
      2 C         143.4990  139.1743  160.3597 C.ar    1  UNL1        0.1001
      3 N         144.0777  138.4441  161.5352 N.ar    1  UNL1       -0.2420
      4 C         143.5599  138.7166  162.9165 C.ar    1  UNL1        0.1078
      5 C         142.4635  139.7194  163.1221 C.ar    1  UNL1        0.1207
      6 C         141.8848  140.4495  161.9465 C.ar    1  UNL1        0.0583
      7 C         141.9457  139.9919  164.5032 C.2     1  UNL1        0.3780
      8 N         140.6641  139.4712  165.0831 N.2     1  UNL1       -0.0308
      9 C         140.5450  139.9906  166.4852 C.2     1  UNL1        0.2318
     10 C         139.4926  139.8057  167.5380 C.2     1  UNL1        0.0456
     11 C         139.6482  140.4627  168.8775 C.2     1  UNL1       -0.0219
     12 C         138.5958  140.2779  169.9303 C.3     1  UNL1        0.0308
     13 C         140.8562  141.3044  169.1642 C.2     1  UNL1       -0.0222
     14 C         141.9086  141.4892  168.1115 C.3     1  UNL1        0.0915
     15 C         143.1166  142.3309  168.3982 C.3     1  UNL1        0.0135
     16 C         141.7530  140.8323  166.7720 C.2     1  UNL1        0.2170
     17 N         142.6187  140.8331  165.5470 N.2     1  UNL1       -0.0347
     18 N         140.7884  141.4523  162.1521 N.pl3   1  UNL1       -0.3071
     19 C         139.3537  141.0254  162.0549 C.3     1  UNL1        0.0921
     20 C         138.2573  142.0282  162.2605 C.3     1  UNL1        0.0369
     21 C         138.5954  143.4578  162.5633 C.3     1  UNL1        0.0542
     22 N         137.4990  144.4606  162.7689 N.3     1  UNL1       -0.3221
     23 C         140.0301  143.8848  162.6605 C.3     1  UNL1        0.0369
     24 C         141.1266  142.8820  162.4549 C.3     1  UNL1        0.0921
     25 H         137.9067  145.3751  162.9636 H       1  UNL1        0.1188
     26 H         136.9182  144.1727  163.5565 H       1  UNL1        0.1188
     27 C         142.3753  144.2925  157.3932 C.3     1  UNL1        0.0310
     28 C         141.8103  142.9650  157.8038 C.ar    1  UNL1       -0.0222
     29 C         140.6665  142.3678  157.0388 C.ar    1  UNL1       -0.0085
     30 C         140.1015  141.0404  157.4493 C.ar    1  UNL1       -0.0222
     31 C         138.9577  140.4432  156.6843 C.3     1  UNL1        0.0310
     32 C         140.6801  140.3101  158.6248 C.ar    1  UNL1       -0.0042
     33 C         141.8239  140.9072  159.3898 C.ar    1  UNL1        0.0021
     34 C         142.3889  142.2347  158.9793 C.ar    1  UNL1       -0.0042
@<TRIPOS>BOND
     1    27    28    1
     2    28    29   ar
     3    29    30   ar
     4    30    31    1
     5    30    32   ar
     6    32    33   ar
     7    33     1    1
     8     1     2   ar
     9     2     3   ar
    10     3     4   ar
    11     4     5   ar
    12     5     7    1
    13     7     8    2
    14     8     9    1
    15     9    10    2
    16    10    11    1
    17    11    12    1
    18    11    13    2
    19    13    14    1
    20    14    15    1
    21    14    16    1
    22    16    17    2
    23     5     6   ar
    24     6    18    1
    25    18    19    1
    26    19    20    1
    27    20    21    1
    28    21    22    1
    29    21    23    1
    30    23    24    1
    31    33    34   ar
    32    34    28   ar
    33     6     1   ar
    34    24    18    1
    35    17     7    1
    36    16     9    1
    37    22    25    1
    38    22    26    1
