@<TRIPOS>MOLECULE
*****
 40 43 0 0 0
SMALL
GASTEIGER

@<TRIPOS>ATOM
      1 N         140.0784  144.9514  161.3501 N.ar    1  UNL1       -0.2464
      2 N         140.4151  145.8031  160.1622 N.ar    1  UNL1       -0.1690
      3 C         140.3020  144.9502  158.9333 C.ar    1  UNL1        0.1024
      4 C         139.8954  143.5714  159.3619 C.ar    1  UNL1        0.0396
      5 C         139.7572  143.5721  160.8555 C.ar    1  UNL1        0.0798
      6 C         140.5517  145.3976  157.5236 C.ar    1  UNL1        0.0211
      7 C         139.6943  146.4661  156.9128 C.ar    1  UNL1        0.0130
      8 C         139.9440  146.9134  155.5030 C.ar    1  UNL1        0.0586
      9 CL        139.0865  147.9820  154.8922 Cl      1  UNL1       -0.0822
     10 C         141.0511  146.2924  154.7040 C.ar    1  UNL1        0.0228
     11 C         141.9086  145.2239  155.3148 C.ar    1  UNL1        0.0586
     12 CL        143.0158  144.6028  154.5159 Cl      1  UNL1       -0.0822
     13 C         141.6589  144.7765  156.7246 C.ar    1  UNL1        0.0130
     14 C         139.3664  142.3995  161.7053 C.ar    1  UNL1        0.0176
     15 C         137.9480  142.2493  162.1697 C.ar    1  UNL1        0.0046
     16 C         137.5573  141.0767  163.0196 C.ar    1  UNL1        0.0372
     17 C         138.5849  140.0542  163.4051 C.ar    1  UNL1        0.1468
     18 C         140.0033  140.2044  162.9408 C.ar    1  UNL1        0.0372
     19 C         140.3940  141.3771  162.0909 C.ar    1  UNL1        0.0046
     20 O         138.1941  138.8817  164.2550 O.3     1  UNL1       -0.4045
     21 C         139.2207  137.8567  164.6365 C.3     1  UNL1        0.5753
     22 F         140.2473  136.8317  165.0180 F       1  UNL1       -0.1328
     23 F         139.5142  138.6190  165.8946 F       1  UNL1       -0.1328
     24 F         138.9271  137.0944  163.3784 F       1  UNL1       -0.1328
     25 C         140.0652  145.4001  162.7814 C.3     1  UNL1        0.1538
     26 C         141.7663  142.7411  165.9886 C.ar    1  UNL1        0.0533
     27 C         142.6504  143.2492  164.8885 C.ar    1  UNL1        0.0042
     28 C         142.0834  144.1355  163.8195 C.ar    1  UNL1       -0.0022
     29 C         140.6322  144.5138  163.8504 C.ar    1  UNL1        0.0021
     30 C         139.7480  144.0057  164.9505 C.ar    1  UNL1       -0.0022
     31 C         140.3151  143.1193  166.0196 C.ar    1  UNL1        0.0042
     32 N         141.8434  140.4443  167.2005 N.am    1  UNL1       -0.3005
     33 C         142.3333  141.8548  167.0577 C.2     1  UNL1        0.2459
     34 O         143.3904  142.3790  167.9839 O.2     1  UNL1       -0.2701
     35 H         141.1496  140.1002  166.5926 H       1  UNL1        0.1498
     36 C         142.4104  139.5580  168.2696 C.3     1  UNL1        0.0956
     37 C         141.9045  139.6636  169.6778 C.3     1  UNL1        0.0629
     38 O         139.4184  139.7425  168.9276 O.co2   1  UNL1       -0.5491
     39 C         140.4819  140.0630  169.9357 C.2     1  UNL1        0.0520
     40 O         140.1228  140.7829  171.2016 O.co2   1  UNL1       -0.5491
@<TRIPOS>UNITY_ATOM_ATTR
38 1
charge -1
@<TRIPOS>BOND
     1    38    39   ar
     2    39    40   ar
     3    39    37    1
     4    37    36    1
     5    36    32    1
     6    32    33   am
     7    33    34    2
     8    33    26    1
     9    26    27   ar
    10    27    28   ar
    11    28    29   ar
    12    29    25    1
    13    25     1    1
    14     1     2   ar
    15     2     3   ar
    16     3     6    1
    17     6     7   ar
    18     7     8   ar
    19     8     9    1
    20     8    10   ar
    21    10    11   ar
    22    11    12    1
    23    11    13   ar
    24     3     4   ar
    25     4     5   ar
    26     5    14    1
    27    14    15   ar
    28    15    16   ar
    29    16    17   ar
    30    17    20    1
    31    20    21    1
    32    21    22    1
    33    21    23    1
    34    21    24    1
    35    17    18   ar
    36    18    19   ar
    37    29    30   ar
    38    30    31   ar
    39    31    26   ar
    40     5     1   ar
    41    19    14   ar
    42    13     6   ar
    43    32    35    1
@<TRIPOS>MOLECULE
*****
 40 43 0 0 0
SMALL
GASTEIGER

@<TRIPOS>ATOM
      1 N         140.1622  145.0334  161.4551 N.ar    1  UNL1       -0.2464
      2 N         140.4980  145.8778  160.2617 N.ar    1  UNL1       -0.1690
      3 C         140.3028  145.0411  159.0321 C.ar    1  UNL1        0.1024
      4 C         139.8464  143.6795  159.4656 C.ar    1  UNL1        0.0396
      5 C         139.7594  143.6748  160.9630 C.ar    1  UNL1        0.0798
      6 C         140.5251  145.4875  157.6174 C.ar    1  UNL1        0.0211
      7 C         141.6200  144.8699  156.7993 C.ar    1  UNL1        0.0130
      8 C         141.8423  145.3163  155.3846 C.ar    1  UNL1        0.0586
      9 CL        142.9373  144.6986  154.5665 Cl      1  UNL1       -0.0822
     10 C         140.9696  146.3804  154.7881 C.ar    1  UNL1        0.0228
     11 C         139.8745  146.9981  155.6062 C.ar    1  UNL1        0.0586
     12 CL        139.0017  148.0623  155.0097 Cl      1  UNL1       -0.0822
     13 C         139.6523  146.5517  157.0209 C.ar    1  UNL1        0.0130
     14 C         139.3430  142.5151  161.8184 C.ar    1  UNL1        0.0176
     15 C         137.9493  142.4519  162.3694 C.ar    1  UNL1        0.0046
     16 C         137.5329  141.2921  163.2247 C.ar    1  UNL1        0.0372
     17 C         138.5101  140.1956  163.5291 C.ar    1  UNL1        0.1468
     18 C         139.9038  140.2588  162.9781 C.ar    1  UNL1        0.0372
     19 C         140.3202  141.4185  162.1228 C.ar    1  UNL1        0.0046
     20 O         138.0936  139.0359  164.3844 O.3     1  UNL1       -0.4045
     21 C         139.0904  137.9751  164.7466 C.3     1  UNL1        0.5753
     22 F         140.0871  136.9143  165.1089 F       1  UNL1       -0.1328
     23 F         138.7385  137.2188  163.5000 F       1  UNL1       -0.1328
     24 F         139.4422  138.7314  165.9933 F       1  UNL1       -0.1328
     25 C         140.2191  145.4708  162.8888 C.3     1  UNL1        0.1538
     26 C         141.6721  142.6215  166.0543 C.ar    1  UNL1        0.0533
     27 C         140.2526  143.1058  166.0756 C.ar    1  UNL1        0.0042
     28 C         139.7682  144.0555  165.0204 C.ar    1  UNL1       -0.0022
     29 C         140.7034  144.5210  163.9439 C.ar    1  UNL1        0.0021
     30 C         142.1229  144.0368  163.9226 C.ar    1  UNL1       -0.0022
     31 C         142.6073  143.0870  164.9778 C.ar    1  UNL1        0.0042
     32 N         142.5505  142.1896  168.4609 N.am    1  UNL1       -0.3005
     33 C         142.1565  141.6717  167.1095 C.2     1  UNL1        0.2459
     34 O         142.2468  140.2041  166.8131 O.2     1  UNL1       -0.2701
     35 H         142.4912  143.1529  168.6554 H       1  UNL1        0.1498
     36 C         143.0348  141.2399  169.5161 C.3     1  UNL1        0.0956
     37 C         142.1530  140.8999  170.6810 C.3     1  UNL1        0.0629
     38 O         140.4590  142.2680  172.0982 O.co2   1  UNL1       -0.5491
     39 C         140.8131  141.5586  170.8248 C.2     1  UNL1        0.0520
     40 O         139.8274  141.5080  169.6954 O.co2   1  UNL1       -0.5491
@<TRIPOS>UNITY_ATOM_ATTR
38 1
charge -1
@<TRIPOS>BOND
     1    38    39   ar
     2    39    40   ar
     3    39    37    1
     4    37    36    1
     5    36    32    1
     6    32    33   am
     7    33    34    2
     8    33    26    1
     9    26    27   ar
    10    27    28   ar
    11    28    29   ar
    12    29    25    1
    13    25     1    1
    14     1     2   ar
    15     2     3   ar
    16     3     6    1
    17     6     7   ar
    18     7     8   ar
    19     8     9    1
    20     8    10   ar
    21    10    11   ar
    22    11    12    1
    23    11    13   ar
    24     3     4   ar
    25     4     5   ar
    26     5    14    1
    27    14    15   ar
    28    15    16   ar
    29    16    17   ar
    30    17    20    1
    31    20    21    1
    32    21    22    1
    33    21    23    1
    34    21    24    1
    35    17    18   ar
    36    18    19   ar
    37    29    30   ar
    38    30    31   ar
    39    31    26   ar
    40     5     1   ar
    41    19    14   ar
    42    13     6   ar
    43    32    35    1
@<TRIPOS>MOLECULE
*****
 40 43 0 0 0
SMALL
GASTEIGER

@<TRIPOS>ATOM
      1 N         139.2266  139.1713  160.2312 N.ar    1  UNL1       -0.2464
      2 N         139.2443  138.3796  158.9573 N.ar    1  UNL1       -0.1690
      3 C         140.6272  138.4587  158.3815 C.ar    1  UNL1        0.1024
      4 C         141.4642  139.2993  159.2997 C.ar    1  UNL1        0.0396
      5 C         140.5986  139.7397  160.4428 C.ar    1  UNL1        0.0798
      6 C         141.0915  137.8109  157.1108 C.ar    1  UNL1        0.0211
      7 C         142.5364  137.4467  156.9391 C.ar    1  UNL1        0.0130
      8 C         143.0008  136.7990  155.6684 C.ar    1  UNL1        0.0586
      9 CL        144.4458  136.4348  155.4968 Cl      1  UNL1       -0.0822
     10 C         142.0203  136.5154  154.5693 C.ar    1  UNL1        0.0228
     11 C         140.5753  136.8796  154.7410 C.ar    1  UNL1        0.0586
     12 CL        139.5947  136.5961  153.6419 Cl      1  UNL1       -0.0822
     13 C         140.1109  137.5274  156.0117 C.ar    1  UNL1        0.0130
     14 C         141.0292  140.5978  161.5952 C.ar    1  UNL1        0.0176
     15 C         141.7861  139.9919  162.7398 C.ar    1  UNL1        0.0046
     16 C         142.2167  140.8501  163.8922 C.ar    1  UNL1        0.0372
     17 C         141.8905  142.3142  163.9001 C.ar    1  UNL1        0.1468
     18 C         141.1337  142.9201  162.7556 C.ar    1  UNL1        0.0372
     19 C         140.7030  142.0619  161.6032 C.ar    1  UNL1        0.0046
     20 O         142.3212  143.1723  165.0526 O.3     1  UNL1       -0.4045
     21 C         143.7808  143.3913  165.3201 C.3     1  UNL1        0.5753
     22 F         145.2404  143.6104  165.5876 F       1  UNL1       -0.1328
     23 F         143.8412  144.3723  164.1869 F       1  UNL1       -0.1328
     24 F         143.7203  142.4104  166.4533 F       1  UNL1       -0.1328
     25 C         138.0445  139.3613  161.1349 C.3     1  UNL1        0.1538
     26 C         138.6194  139.4806  165.5964 C.ar    1  UNL1        0.0533
     27 C         138.9433  138.2316  164.8316 C.ar    1  UNL1        0.0042
     28 C         138.7516  138.1918  163.3444 C.ar    1  UNL1       -0.0022
     29 C         138.2362  139.4011  162.6220 C.ar    1  UNL1        0.0021
     30 C         137.9123  140.6502  163.3868 C.ar    1  UNL1       -0.0022
     31 C         138.1040  140.6899  164.8740 C.ar    1  UNL1        0.0042
     32 N         139.9086  140.3535  167.6764 N.am    1  UNL1       -0.3005
     33 C         138.8111  139.5204  167.0836 C.2     1  UNL1        0.2459
     34 O         137.9052  138.7270  167.9780 O.2     1  UNL1       -0.2701
     35 H         140.5032  140.8742  167.0893 H       1  UNL1        0.1498
     36 C         140.1002  140.3932  169.1635 C.3     1  UNL1        0.0956
     37 C         139.2976  141.3470  169.9979 C.3     1  UNL1        0.0629
     38 O         140.7021  142.1205  172.0422 O.co2   1  UNL1       -0.5491
     39 C         139.9872  142.4379  170.7624 C.2     1  UNL1        0.0520
     40 O         139.9617  143.8463  170.2469 O.co2   1  UNL1       -0.5491
@<TRIPOS>UNITY_ATOM_ATTR
38 1
charge -1
@<TRIPOS>BOND
     1    38    39   ar
     2    39    40   ar
     3    39    37    1
     4    37    36    1
     5    36    32    1
     6    32    33   am
     7    33    34    2
     8    33    26    1
     9    26    27   ar
    10    27    28   ar
    11    28    29   ar
    12    29    25    1
    13    25     1    1
    14     1     2   ar
    15     2     3   ar
    16     3     6    1
    17     6     7   ar
    18     7     8   ar
    19     8     9    1
    20     8    10   ar
    21    10    11   ar
    22    11    12    1
    23    11    13   ar
    24     3     4   ar
    25     4     5   ar
    26     5    14    1
    27    14    15   ar
    28    15    16   ar
    29    16    17   ar
    30    17    20    1
    31    20    21    1
    32    21    22    1
    33    21    23    1
    34    21    24    1
    35    17    18   ar
    36    18    19   ar
    37    29    30   ar
    38    30    31   ar
    39    31    26   ar
    40     5     1   ar
    41    19    14   ar
    42    13     6   ar
    43    32    35    1
@<TRIPOS>MOLECULE
*****
 40 43 0 0 0
SMALL
GASTEIGER

@<TRIPOS>ATOM
      1 N         138.3309  139.7358  160.3158 N.ar    1  UNL1       -0.2464
      2 N         137.4695  140.1062  159.1450 N.ar    1  UNL1       -0.1690
      3 C         138.1213  141.2558  158.4352 C.ar    1  UNL1        0.1024
      4 C         139.3856  141.5959  159.1673 C.ar    1  UNL1        0.0396
      5 C         139.5151  140.6565  160.3296 C.ar    1  UNL1        0.0798
      6 C         137.6003  141.9444  157.2086 C.ar    1  UNL1        0.0211
      7 C         136.5026  141.3141  156.4039 C.ar    1  UNL1        0.0130
      8 C         135.9816  142.0027  155.1774 C.ar    1  UNL1        0.0586
      9 CL        134.8838  141.3724  154.3726 Cl      1  UNL1       -0.0822
     10 C         136.5582  143.3215  154.7556 C.ar    1  UNL1        0.0228
     11 C         137.6560  143.9519  155.5604 C.ar    1  UNL1        0.0586
     12 CL        138.2327  145.2708  155.1387 Cl      1  UNL1       -0.0822
     13 C         138.1770  143.2633  156.7869 C.ar    1  UNL1        0.0130
     14 C         140.6326  140.6405  161.3300 C.ar    1  UNL1        0.0176
     15 C         141.5932  139.4889  161.3632 C.ar    1  UNL1        0.0046
     16 C         142.7107  139.4730  162.3637 C.ar    1  UNL1        0.0372
     17 C         142.8677  140.6086  163.3310 C.ar    1  UNL1        0.1468
     18 C         141.9071  141.7602  163.2978 C.ar    1  UNL1        0.0372
     19 C         140.7896  141.7761  162.2973 C.ar    1  UNL1        0.0046
     20 O         143.9852  140.5926  164.3314 O.3     1  UNL1       -0.4045
     21 C         144.1859  139.3953  165.2124 C.3     1  UNL1        0.5753
     22 F         144.3866  138.1980  166.0934 F       1  UNL1       -0.1328
     23 F         142.8656  139.6602  165.8732 F       1  UNL1       -0.1328
     24 F         145.5062  139.1305  164.5516 F       1  UNL1       -0.1328
     25 C         138.0564  138.6376  161.2999 C.3     1  UNL1        0.1538
     26 C         138.7588  139.3244  165.6914 C.ar    1  UNL1        0.0533
     27 C         139.2718  138.0765  165.0359 C.ar    1  UNL1        0.0042
     28 C         139.0377  137.8475  163.5721 C.ar    1  UNL1       -0.0022
     29 C         138.2905  138.8665  162.7637 C.ar    1  UNL1        0.0021
     30 C         137.7775  140.1144  163.4191 C.ar    1  UNL1       -0.0022
     31 C         138.0117  140.3433  164.8830 C.ar    1  UNL1        0.0042
     32 N         140.1516  140.3917  167.6073 N.am    1  UNL1       -0.3005
     33 C         138.9929  139.5533  167.1552 C.2     1  UNL1        0.2459
     34 O         138.0683  138.9438  168.1669 O.2     1  UNL1       -0.2701
     35 H         140.7585  140.7917  166.9433 H       1  UNL1        0.1498
     36 C         140.3857  140.6205  169.0711 C.3     1  UNL1        0.0956
     37 C         139.4717  141.5242  169.8446 C.3     1  UNL1        0.0629
     38 O         140.6475  142.1954  172.0620 O.co2   1  UNL1       -0.5491
     39 C         140.0447  142.5796  170.7433 C.2     1  UNL1        0.0520
     40 O         140.0150  144.0192  170.3232 O.co2   1  UNL1       -0.5491
@<TRIPOS>UNITY_ATOM_ATTR
38 1
charge -1
@<TRIPOS>BOND
     1    38    39   ar
     2    39    40   ar
     3    39    37    1
     4    37    36    1
     5    36    32    1
     6    32    33   am
     7    33    34    2
     8    33    26    1
     9    26    27   ar
    10    27    28   ar
    11    28    29   ar
    12    29    25    1
    13    25     1    1
    14     1     2   ar
    15     2     3   ar
    16     3     6    1
    17     6     7   ar
    18     7     8   ar
    19     8     9    1
    20     8    10   ar
    21    10    11   ar
    22    11    12    1
    23    11    13   ar
    24     3     4   ar
    25     4     5   ar
    26     5    14    1
    27    14    15   ar
    28    15    16   ar
    29    16    17   ar
    30    17    20    1
    31    20    21    1
    32    21    22    1
    33    21    23    1
    34    21    24    1
    35    17    18   ar
    36    18    19   ar
    37    29    30   ar
    38    30    31   ar
    39    31    26   ar
    40     5     1   ar
    41    19    14   ar
    42    13     6   ar
    43    32    35    1
@<TRIPOS>MOLECULE
*****
 40 43 0 0 0
SMALL
GASTEIGER

@<TRIPOS>ATOM
      1 N         139.9903  138.7285  160.4128 N.ar    1  UNL1       -0.2464
      2 N         140.4584  137.8594  159.2834 N.ar    1  UNL1       -0.1690
      3 C         141.7416  138.4323  158.7586 C.ar    1  UNL1        0.1024
      4 C         142.0665  139.6555  159.5638 C.ar    1  UNL1        0.0396
      5 C         140.9842  139.8386  160.5861 C.ar    1  UNL1        0.0798
      6 C         142.5566  137.8792  157.6274 C.ar    1  UNL1        0.0211
      7 C         143.1689  138.8070  156.6204 C.ar    1  UNL1        0.0130
      8 C         143.9839  138.2539  155.4892 C.ar    1  UNL1        0.0586
      9 CL        144.5962  139.1818  154.4821 Cl      1  UNL1       -0.0822
     10 C         144.1868  136.7729  155.3650 C.ar    1  UNL1        0.0228
     11 C         143.5746  135.8450  156.3721 C.ar    1  UNL1        0.0586
     12 CL        143.7774  134.3640  156.2479 Cl      1  UNL1       -0.0822
     13 C         142.7595  136.3982  157.5033 C.ar    1  UNL1        0.0130
     14 C         140.9089  140.9385  161.6031 C.ar    1  UNL1        0.0176
     15 C         140.0588  142.1461  161.3404 C.ar    1  UNL1        0.0046
     16 C         139.9836  143.2460  162.3575 C.ar    1  UNL1        0.0372
     17 C         140.7584  143.1384  163.6374 C.ar    1  UNL1        0.1468
     18 C         141.6084  141.9308  163.9002 C.ar    1  UNL1        0.0372
     19 C         141.6837  140.8309  162.8831 C.ar    1  UNL1        0.0046
     20 O         140.6831  144.2383  164.6544 O.3     1  UNL1       -0.4045
     21 C         139.3549  144.6498  165.2171 C.3     1  UNL1        0.5753
     22 F         138.0267  145.0613  165.7798 F       1  UNL1       -0.1328
     23 F         139.5720  143.7435  166.3925 F       1  UNL1       -0.1328
     24 F         139.1377  145.5561  164.0418 F       1  UNL1       -0.1328
     25 C         138.7467  138.5235  161.2261 C.3     1  UNL1        0.1538
     26 C         138.8499  139.1242  165.6846 C.ar    1  UNL1        0.0533
     27 C         139.5295  137.9356  165.0721 C.ar    1  UNL1        0.0042
     28 C         139.4951  137.7353  163.5860 C.ar    1  UNL1       -0.0022
     29 C         138.7811  138.7238  162.7123 C.ar    1  UNL1        0.0021
     30 C         138.1015  139.9124  163.3248 C.ar    1  UNL1       -0.0022
     31 C         138.1359  140.1126  164.8110 C.ar    1  UNL1        0.0042
     32 N         140.0209  140.0738  167.8006 N.am    1  UNL1       -0.3005
     33 C         138.8843  139.3245  167.1709 C.2     1  UNL1        0.2459
     34 O         137.7821  138.7753  168.0273 O.2     1  UNL1       -0.2701
     35 H         140.7443  140.4343  167.2385 H       1  UNL1        0.1498
     36 C         140.0553  140.2740  169.2867 C.3     1  UNL1        0.0956
     37 C         139.2870  141.4019  169.9096 C.3     1  UNL1        0.0629
     38 O         140.0692  143.8660  170.1670 O.co2   1  UNL1       -0.5491
     39 C         140.0090  142.4609  170.6887 C.2     1  UNL1        0.0520
     40 O         140.6708  142.1149  171.9896 O.co2   1  UNL1       -0.5491
@<TRIPOS>UNITY_ATOM_ATTR
38 1
charge -1
@<TRIPOS>BOND
     1    38    39   ar
     2    39    40   ar
     3    39    37    1
     4    37    36    1
     5    36    32    1
     6    32    33   am
     7    33    34    2
     8    33    26    1
     9    26    27   ar
    10    27    28   ar
    11    28    29   ar
    12    29    25    1
    13    25     1    1
    14     1     2   ar
    15     2     3   ar
    16     3     6    1
    17     6     7   ar
    18     7     8   ar
    19     8     9    1
    20     8    10   ar
    21    10    11   ar
    22    11    12    1
    23    11    13   ar
    24     3     4   ar
    25     4     5   ar
    26     5    14    1
    27    14    15   ar
    28    15    16   ar
    29    16    17   ar
    30    17    20    1
    31    20    21    1
    32    21    22    1
    33    21    23    1
    34    21    24    1
    35    17    18   ar
    36    18    19   ar
    37    29    30   ar
    38    30    31   ar
    39    31    26   ar
    40     5     1   ar
    41    19    14   ar
    42    13     6   ar
    43    32    35    1
@<TRIPOS>MOLECULE
*****
 40 43 0 0 0
SMALL
GASTEIGER

@<TRIPOS>ATOM
      1 N         143.2436  139.5448  160.9472 N.ar    1  UNL1       -0.2464
      2 N         143.3471  138.5210  159.8558 N.ar    1  UNL1       -0.1690
      3 C         142.1192  138.6288  159.0010 C.ar    1  UNL1        0.1024
      4 C         141.2568  139.7194  159.5642 C.ar    1  UNL1        0.0396
      5 C         141.9517  140.2855  160.7669 C.ar    1  UNL1        0.0798
      6 C         141.8082  137.7930  157.7950 C.ar    1  UNL1        0.0211
      7 C         140.4355  137.8286  157.1915 C.ar    1  UNL1        0.0130
      8 C         140.1246  136.9927  155.9854 C.ar    1  UNL1        0.0586
      9 CL        138.7518  137.0283  155.3819 Cl      1  UNL1       -0.0822
     10 C         141.1863  136.1212  155.3829 C.ar    1  UNL1        0.0228
     11 C         142.5591  136.0856  155.9864 C.ar    1  UNL1        0.0586
     12 CL        143.6209  135.2142  155.3839 Cl      1  UNL1       -0.0822
     13 C         142.8700  136.9215  157.1925 C.ar    1  UNL1        0.0130
     14 C         141.4440  141.3970  161.6367 C.ar    1  UNL1        0.0176
     15 C         140.5185  141.0938  162.7775 C.ar    1  UNL1        0.0046
     16 C         140.0108  142.2054  163.6473 C.ar    1  UNL1        0.0372
     17 C         140.4286  143.6204  163.3763 C.ar    1  UNL1        0.1468
     18 C         141.3541  143.9236  162.2355 C.ar    1  UNL1        0.0372
     19 C         141.8618  142.8120  161.3657 C.ar    1  UNL1        0.0046
     20 O         139.9209  144.7319  164.2461 O.3     1  UNL1       -0.4045
     21 C         138.5406  144.6576  164.8286 C.3     1  UNL1        0.5753
     22 F         137.1603  144.5833  165.4112 F       1  UNL1       -0.1328
     23 F         139.1273  144.5471  166.2047 F       1  UNL1       -0.1328
     24 F         137.9539  144.7682  163.4526 F       1  UNL1       -0.1328
     25 C         144.2545  139.7857  162.0289 C.3     1  UNL1        0.1538
     26 C         142.9113  140.2704  166.2963 C.ar    1  UNL1        0.0533
     27 C         143.4647  141.4455  165.5461 C.ar    1  UNL1        0.0042
     28 C         143.9125  141.2840  164.1237 C.ar    1  UNL1       -0.0022
     29 C         143.8068  139.9473  163.4513 C.ar    1  UNL1        0.0021
     30 C         143.2533  138.7721  164.2014 C.ar    1  UNL1       -0.0022
     31 C         142.8055  138.9337  165.6240 C.ar    1  UNL1        0.0042
     32 N         141.6643  141.6358  168.1213 N.am    1  UNL1       -0.3005
     33 C         142.4635  140.4320  167.7188 C.2     1  UNL1        0.2459
     34 O         142.8150  139.3898  168.7387 O.2     1  UNL1       -0.2701
     35 H         141.4336  142.3199  167.4519 H       1  UNL1        0.1498
     36 C         141.2166  141.7974  169.5438 C.3     1  UNL1        0.0956
     37 C         139.7721  141.6087  169.9015 C.3     1  UNL1        0.0629
     38 O         139.1338  139.6780  168.2844 O.co2   1  UNL1       -0.5491
     39 C         139.1045  140.2884  169.6542 C.2     1  UNL1        0.0520
     40 O         138.4076  139.5786  170.7769 O.co2   1  UNL1       -0.5491
@<TRIPOS>UNITY_ATOM_ATTR
38 1
charge -1
@<TRIPOS>BOND
     1    38    39   ar
     2    39    40   ar
     3    39    37    1
     4    37    36    1
     5    36    32    1
     6    32    33   am
     7    33    34    2
     8    33    26    1
     9    26    27   ar
    10    27    28   ar
    11    28    29   ar
    12    29    25    1
    13    25     1    1
    14     1     2   ar
    15     2     3   ar
    16     3     6    1
    17     6     7   ar
    18     7     8   ar
    19     8     9    1
    20     8    10   ar
    21    10    11   ar
    22    11    12    1
    23    11    13   ar
    24     3     4   ar
    25     4     5   ar
    26     5    14    1
    27    14    15   ar
    28    15    16   ar
    29    16    17   ar
    30    17    20    1
    31    20    21    1
    32    21    22    1
    33    21    23    1
    34    21    24    1
    35    17    18   ar
    36    18    19   ar
    37    29    30   ar
    38    30    31   ar
    39    31    26   ar
    40     5     1   ar
    41    19    14   ar
    42    13     6   ar
    43    32    35    1
@<TRIPOS>MOLECULE
*****
 40 43 0 0 0
SMALL
GASTEIGER

@<TRIPOS>ATOM
      1 N         138.2863  139.6693  160.5299 N.ar    1  UNL1       -0.2464
      2 N         137.3343  139.9362  159.4019 N.ar    1  UNL1       -0.1690
      3 C         137.9488  140.9769  158.5132 C.ar    1  UNL1        0.1024
      4 C         139.2805  141.3531  159.0921 C.ar    1  UNL1        0.0396
      5 C         139.4891  140.5449  160.3384 C.ar    1  UNL1        0.0798
      6 C         137.3386  141.5421  157.2649 C.ar    1  UNL1        0.0211
      7 C         137.7368  142.9069  156.7870 C.ar    1  UNL1        0.0130
      8 C         137.1267  143.4721  155.5387 C.ar    1  UNL1        0.0586
      9 CL        137.5250  144.8370  155.0608 Cl      1  UNL1       -0.0822
     10 C         136.1182  142.6724  154.7684 C.ar    1  UNL1        0.0228
     11 C         135.7199  141.3075  155.2463 C.ar    1  UNL1        0.0586
     12 CL        134.7115  140.5078  154.4760 Cl      1  UNL1       -0.0822
     13 C         136.3301  140.7423  156.4946 C.ar    1  UNL1        0.0130
     14 C         140.6897  140.6023  161.2358 C.ar    1  UNL1        0.0176
     15 C         141.7199  139.5134  161.1809 C.ar    1  UNL1        0.0046
     16 C         142.9204  139.5709  162.0784 C.ar    1  UNL1        0.0372
     17 C         143.0909  140.7172  163.0307 C.ar    1  UNL1        0.1468
     18 C         142.0607  141.8062  163.0855 C.ar    1  UNL1        0.0372
     19 C         140.8602  141.7487  162.1881 C.ar    1  UNL1        0.0046
     20 O         144.2914  140.7746  163.9280 O.3     1  UNL1       -0.4045
     21 C         144.6636  142.0623  164.6013 C.3     1  UNL1        0.5753
     22 F         145.0357  143.3500  165.2746 F       1  UNL1       -0.1328
     23 F         143.8319  141.6811  165.7901 F       1  UNL1       -0.1328
     24 F         145.4952  142.4435  163.4126 F       1  UNL1       -0.1328
     25 C         138.0730  138.6974  161.6524 C.3     1  UNL1        0.1538
     26 C         139.3415  139.7750  165.8332 C.ar    1  UNL1        0.0533
     27 C         138.3499  140.6336  165.1055 C.ar    1  UNL1        0.0042
     28 C         137.9271  140.2744  163.7119 C.ar    1  UNL1       -0.0022
     29 C         138.4959  139.0566  163.0459 C.ar    1  UNL1        0.0021
     30 C         139.4875  138.1980  163.7736 C.ar    1  UNL1       -0.0022
     31 C         139.9103  138.5572  165.1673 C.ar    1  UNL1        0.0042
     32 N         140.9695  141.0001  167.4453 N.am    1  UNL1       -0.3005
     33 C         139.7644  140.1343  167.2269 C.2     1  UNL1        0.2459
     34 O         138.9819  139.6276  168.4021 O.2     1  UNL1       -0.2701
     35 H         141.4831  141.3327  166.6739 H       1  UNL1        0.1498
     36 C         141.3923  141.3593  168.8389 C.3     1  UNL1        0.0956
     37 C         141.3743  142.7923  169.2823 C.3     1  UNL1        0.0629
     38 O         140.0500  144.7834  170.2979 O.co2   1  UNL1       -0.5491
     39 C         140.2347  143.3066  170.1110 C.2     1  UNL1        0.0520
     40 O         139.2798  142.3442  170.7528 O.co2   1  UNL1       -0.5491
@<TRIPOS>UNITY_ATOM_ATTR
38 1
charge -1
@<TRIPOS>BOND
     1    38    39   ar
     2    39    40   ar
     3    39    37    1
     4    37    36    1
     5    36    32    1
     6    32    33   am
     7    33    34    2
     8    33    26    1
     9    26    27   ar
    10    27    28   ar
    11    28    29   ar
    12    29    25    1
    13    25     1    1
    14     1     2   ar
    15     2     3   ar
    16     3     6    1
    17     6     7   ar
    18     7     8   ar
    19     8     9    1
    20     8    10   ar
    21    10    11   ar
    22    11    12    1
    23    11    13   ar
    24     3     4   ar
    25     4     5   ar
    26     5    14    1
    27    14    15   ar
    28    15    16   ar
    29    16    17   ar
    30    17    20    1
    31    20    21    1
    32    21    22    1
    33    21    23    1
    34    21    24    1
    35    17    18   ar
    36    18    19   ar
    37    29    30   ar
    38    30    31   ar
    39    31    26   ar
    40     5     1   ar
    41    19    14   ar
    42    13     6   ar
    43    32    35    1
@<TRIPOS>MOLECULE
*****
 40 43 0 0 0
SMALL
GASTEIGER

@<TRIPOS>ATOM
      1 N         143.0341  139.2149  160.8223 N.ar    1  UNL1       -0.2464
      2 N         143.4481  138.4131  159.6240 N.ar    1  UNL1       -0.1690
      3 C         142.2219  138.1356  158.8057 C.ar    1  UNL1        0.1024
      4 C         141.0500  138.7659  159.4983 C.ar    1  UNL1        0.0396
      5 C         141.5519  139.4329  160.7445 C.ar    1  UNL1        0.0798
      6 C         142.1757  137.3634  157.5206 C.ar    1  UNL1        0.0211
      7 C         141.3326  137.8537  156.3810 C.ar    1  UNL1        0.0130
      8 C         141.2864  137.0815  155.0958 C.ar    1  UNL1        0.0586
      9 CL        140.4432  137.5718  153.9562 Cl      1  UNL1       -0.0822
     10 C         142.0832  135.8191  154.9503 C.ar    1  UNL1        0.0228
     11 C         142.9264  135.3289  156.0899 C.ar    1  UNL1        0.0586
     12 CL        143.7233  134.0664  155.9445 Cl      1  UNL1       -0.0822
     13 C         142.9726  136.1010  157.3751 C.ar    1  UNL1        0.0130
     14 C         140.7183  140.1857  161.7386 C.ar    1  UNL1        0.0176
     15 C         139.8805  139.4386  162.7335 C.ar    1  UNL1        0.0046
     16 C         139.0468  140.1915  163.7276 C.ar    1  UNL1        0.0372
     17 C         139.0509  141.6915  163.7268 C.ar    1  UNL1        0.1468
     18 C         139.8887  142.4386  162.7318 C.ar    1  UNL1        0.0372
     19 C         140.7224  141.6857  161.7378 C.ar    1  UNL1        0.0046
     20 O         138.2173  142.4444  164.7208 O.3     1  UNL1       -0.4045
     21 C         138.5360  143.8759  165.0356 C.3     1  UNL1        0.5753
     22 F         138.8547  145.3075  165.3503 F       1  UNL1       -0.1328
     23 F         139.6341  143.4294  165.9546 F       1  UNL1       -0.1328
     24 F         137.4378  144.3225  164.1165 F       1  UNL1       -0.1328
     25 C         143.9425  139.7114  161.9076 C.3     1  UNL1        0.1538
     26 C         142.5481  139.7073  166.1861 C.ar    1  UNL1        0.0533
     27 C         142.9450  140.9954  165.5279 C.ar    1  UNL1        0.0042
     28 C         143.4098  140.9968  164.1017 C.ar    1  UNL1       -0.0022
     29 C         143.4777  139.7100  163.3338 C.ar    1  UNL1        0.0021
     30 C         143.0808  138.4219  163.9920 C.ar    1  UNL1       -0.0022
     31 C         142.6160  138.4206  165.4182 C.ar    1  UNL1        0.0042
     32 N         140.7275  140.2456  167.9598 N.am    1  UNL1       -0.3005
     33 C         142.0833  139.7060  167.6123 C.2     1  UNL1        0.2459
     34 O         142.9742  139.1650  168.6910 O.2     1  UNL1       -0.2701
     35 H         140.1428  140.6007  167.2518 H       1  UNL1        0.1498
     36 C         140.2628  140.2442  169.3859 C.3     1  UNL1        0.0956
     37 C         139.6383  141.4756  169.9725 C.3     1  UNL1        0.0629
     38 O         139.7569  144.0104  170.5297 O.co2   1  UNL1       -0.5491
     39 C         140.3603  142.7885  169.9029 C.2     1  UNL1        0.0520
     40 O         141.6857  142.8796  169.2065 O.co2   1  UNL1       -0.5491
@<TRIPOS>UNITY_ATOM_ATTR
38 1
charge -1
@<TRIPOS>BOND
     1    38    39   ar
     2    39    40   ar
     3    39    37    1
     4    37    36    1
     5    36    32    1
     6    32    33   am
     7    33    34    2
     8    33    26    1
     9    26    27   ar
    10    27    28   ar
    11    28    29   ar
    12    29    25    1
    13    25     1    1
    14     1     2   ar
    15     2     3   ar
    16     3     6    1
    17     6     7   ar
    18     7     8   ar
    19     8     9    1
    20     8    10   ar
    21    10    11   ar
    22    11    12    1
    23    11    13   ar
    24     3     4   ar
    25     4     5   ar
    26     5    14    1
    27    14    15   ar
    28    15    16   ar
    29    16    17   ar
    30    17    20    1
    31    20    21    1
    32    21    22    1
    33    21    23    1
    34    21    24    1
    35    17    18   ar
    36    18    19   ar
    37    29    30   ar
    38    30    31   ar
    39    31    26   ar
    40     5     1   ar
    41    19    14   ar
    42    13     6   ar
    43    32    35    1
@<TRIPOS>MOLECULE
*****
 40 43 0 0 0
SMALL
GASTEIGER

@<TRIPOS>ATOM
      1 N         142.9933  139.0574  160.4430 N.ar    1  UNL1       -0.2464
      2 N         143.8148  138.9678  159.1911 N.ar    1  UNL1       -0.1690
      3 C         143.7118  140.2814  158.4740 C.ar    1  UNL1        0.1024
      4 C         142.8266  141.1827  159.2828 C.ar    1  UNL1        0.0396
      5 C         142.3826  140.4263  160.4996 C.ar    1  UNL1        0.0798
      6 C         144.3771  140.6320  157.1762 C.ar    1  UNL1        0.0211
      7 C         143.9074  140.0022  155.8985 C.ar    1  UNL1        0.0130
      8 C         144.5727  140.3528  154.6007 C.ar    1  UNL1        0.0586
      9 CL        144.1029  139.7229  153.3229 Cl      1  UNL1       -0.0822
     10 C         145.7077  141.3331  154.5805 C.ar    1  UNL1        0.0228
     11 C         146.1774  141.9630  155.8583 C.ar    1  UNL1        0.0586
     12 CL        147.3124  142.9434  155.8382 Cl      1  UNL1       -0.0822
     13 C         145.5121  141.6124  157.1561 C.ar    1  UNL1        0.0130
     14 C         141.4853  140.9472  161.5829 C.ar    1  UNL1        0.0176
     15 C         142.0400  141.8444  162.6494 C.ar    1  UNL1        0.0046
     16 C         141.1427  142.3653  163.7327 C.ar    1  UNL1        0.0372
     17 C         139.6907  141.9889  163.7496 C.ar    1  UNL1        0.1468
     18 C         139.1361  141.0917  162.6831 C.ar    1  UNL1        0.0372
     19 C         140.0334  140.5708  161.5999 C.ar    1  UNL1        0.0046
     20 O         138.7935  142.5098  164.8329 O.3     1  UNL1       -0.4045
     21 C         138.7860  143.9734  165.1613 C.3     1  UNL1        0.5753
     22 F         138.7785  145.4370  165.4897 F       1  UNL1       -0.1328
     23 F         137.8655  144.2282  164.0047 F       1  UNL1       -0.1328
     24 F         139.7065  143.7186  166.3179 F       1  UNL1       -0.1328
     25 C         142.8141  137.9692  161.4596 C.3     1  UNL1        0.1538
     26 C         142.6986  138.9819  165.8427 C.ar    1  UNL1        0.0533
     27 C         143.9177  139.3042  165.0303 C.ar    1  UNL1        0.0042
     28 C         143.9562  138.9666  163.5693 C.ar    1  UNL1       -0.0022
     29 C         142.7756  138.3067  162.9206 C.ar    1  UNL1        0.0021
     30 C         141.5564  137.9845  163.7330 C.ar    1  UNL1       -0.0022
     31 C         141.5180  138.3221  165.1940 C.ar    1  UNL1        0.0042
     32 N         141.8953  140.5203  167.7761 N.am    1  UNL1       -0.3005
     33 C         142.6601  139.3195  167.3037 C.2     1  UNL1        0.2459
     34 O         143.3864  138.4563  168.2923 O.2     1  UNL1       -0.2701
     35 H         141.4186  141.0869  167.1273 H       1  UNL1        0.1498
     36 C         141.8569  140.8578  169.2371 C.3     1  UNL1        0.0956
     37 C         140.7892  140.2736  170.1140 C.3     1  UNL1        0.0629
     38 O         139.0737  139.6270  168.2732 O.co2   1  UNL1       -0.5491
     39 C         139.3728  140.2031  169.6255 C.2     1  UNL1        0.0520
     40 O         138.2555  140.7085  170.4892 O.co2   1  UNL1       -0.5491
@<TRIPOS>UNITY_ATOM_ATTR
38 1
charge -1
@<TRIPOS>BOND
     1    38    39   ar
     2    39    40   ar
     3    39    37    1
     4    37    36    1
     5    36    32    1
     6    32    33   am
     7    33    34    2
     8    33    26    1
     9    26    27   ar
    10    27    28   ar
    11    28    29   ar
    12    29    25    1
    13    25     1    1
    14     1     2   ar
    15     2     3   ar
    16     3     6    1
    17     6     7   ar
    18     7     8   ar
    19     8     9    1
    20     8    10   ar
    21    10    11   ar
    22    11    12    1
    23    11    13   ar
    24     3     4   ar
    25     4     5   ar
    26     5    14    1
    27    14    15   ar
    28    15    16   ar
    29    16    17   ar
    30    17    20    1
    31    20    21    1
    32    21    22    1
    33    21    23    1
    34    21    24    1
    35    17    18   ar
    36    18    19   ar
    37    29    30   ar
    38    30    31   ar
    39    31    26   ar
    40     5     1   ar
    41    19    14   ar
    42    13     6   ar
    43    32    35    1
