@<TRIPOS>MOLECULE
*****
 25 28 0 0 0
SMALL
GASTEIGER

@<TRIPOS>ATOM
      1 C         141.0927  140.7858  165.3778 C.3     1  UNL1        0.1275
      2 CL        139.9662  143.3048  166.2572 Cl      1  UNL1       -0.0825
      3 C         139.7094  142.9759  165.5780 C.ar    1  UNL1        0.0560
      4 C         138.6692  143.9096  165.0339 C.ar    1  UNL1        0.0112
      5 C         137.9720  143.5870  163.7455 C.ar    1  UNL1        0.0008
      6 C         138.3150  142.3307  163.0013 C.ar    1  UNL1       -0.0002
      7 C         139.3552  141.3970  163.5454 C.ar    1  UNL1       -0.0011
      8 C         140.0524  141.7196  164.8337 C.ar    1  UNL1        0.0146
      9 C         140.0185  139.8097  165.7564 C.ar    1  UNL1        0.0040
     10 C         139.1712  140.0597  166.9687 C.ar    1  UNL1       -0.0019
     11 C         138.0970  139.0835  167.3473 C.ar    1  UNL1       -0.0002
     12 C         137.8702  137.8574  166.5136 C.ar    1  UNL1       -0.0000
     13 C         138.7175  137.6073  165.3013 C.ar    1  UNL1       -0.0002
     14 C         139.7916  138.5834  164.9227 C.ar    1  UNL1       -0.0019
     15 C         142.1668  141.7619  164.9992 C.ar    1  UNL1        0.0040
     16 C         142.3388  142.1692  163.5658 C.ar    1  UNL1       -0.0019
     17 C         143.4130  143.1453  163.1873 C.ar    1  UNL1       -0.0002
     18 C         144.3152  143.7141  164.2420 C.ar    1  UNL1       -0.0000
     19 C         144.1432  143.3069  165.6753 C.ar    1  UNL1       -0.0002
     20 C         143.0690  142.3307  166.0540 C.ar    1  UNL1       -0.0019
     21 N         142.1329  139.8521  165.9219 N.ar    1  UNL1       -0.3008
     22 C         143.1466  139.0953  165.1158 C.ar    1  UNL1        0.0987
     23 C         143.9823  138.2867  166.0633 C.ar    1  UNL1        0.1193
     24 N         143.4851  138.5437  167.4550 N.ar    1  UNL1       -0.2223
     25 C         142.3421  139.5111  167.3676 C.ar    1  UNL1        0.1792
@<TRIPOS>BOND
     1     2     3    1
     2     3     4   ar
     3     4     5   ar
     4     5     6   ar
     5     6     7   ar
     6     7     8   ar
     7     8     1    1
     8     1     9    1
     9     9    10   ar
    10    10    11   ar
    11    11    12   ar
    12    12    13   ar
    13    13    14   ar
    14     1    15    1
    15    15    16   ar
    16    16    17   ar
    17    17    18   ar
    18    18    19   ar
    19    19    20   ar
    20     1    21    1
    21    21    22   ar
    22    22    23   ar
    23    23    24   ar
    24    24    25   ar
    25     8     3   ar
    26    14     9   ar
    27    20    15   ar
    28    25    21   ar
@<TRIPOS>MOLECULE
*****
 25 28 0 0 0
SMALL
GASTEIGER

@<TRIPOS>ATOM
      1 C         141.0895  140.7711  165.3639 C.3     1  UNL1        0.1275
      2 CL        139.9542  143.2979  166.2091 Cl      1  UNL1       -0.0825
      3 C         139.7010  142.9605  165.5327 C.ar    1  UNL1        0.0560
      4 C         138.6612  143.8857  164.9734 C.ar    1  UNL1        0.0112
      5 C         137.9702  143.5467  163.6859 C.ar    1  UNL1        0.0008
      6 C         138.3189  142.2825  162.9578 C.ar    1  UNL1       -0.0002
      7 C         139.3586  141.3574  163.5171 C.ar    1  UNL1       -0.0011
      8 C         140.0497  141.6964  164.8045 C.ar    1  UNL1        0.0146
      9 C         142.1626  141.7489  164.9866 C.ar    1  UNL1        0.0040
     10 C         142.3447  142.1459  163.5516 C.ar    1  UNL1       -0.0019
     11 C         143.4179  143.1237  163.1744 C.ar    1  UNL1       -0.0002
     12 C         144.3088  143.7046  164.2322 C.ar    1  UNL1       -0.0000
     13 C         144.1266  143.3076  165.6672 C.ar    1  UNL1       -0.0002
     14 C         143.0536  142.3298  166.0444 C.ar    1  UNL1       -0.0019
     15 C         140.0164  139.7933  165.7411 C.ar    1  UNL1        0.0040
     16 C         139.1631  140.0451  166.9488 C.ar    1  UNL1       -0.0019
     17 C         138.0900  139.0673  167.3261 C.ar    1  UNL1       -0.0002
     18 C         137.8702  137.8376  166.4956 C.ar    1  UNL1       -0.0000
     19 C         138.7235  137.5858  165.2880 C.ar    1  UNL1       -0.0002
     20 C         139.7966  138.5636  164.9107 C.ar    1  UNL1       -0.0019
     21 N         142.1292  139.8458  165.9232 N.ar    1  UNL1       -0.3008
     22 C         143.1501  139.0846  165.1305 C.ar    1  UNL1        0.0987
     23 C         143.9824  138.2876  166.0907 C.ar    1  UNL1        0.1193
     24 N         143.4760  138.5564  167.4769 N.ar    1  UNL1       -0.2223
     25 C         142.3307  139.5194  167.3733 C.ar    1  UNL1        0.1792
@<TRIPOS>BOND
     1     2     3    1
     2     3     4   ar
     3     4     5   ar
     4     5     6   ar
     5     6     7   ar
     6     7     8   ar
     7     8     1    1
     8     1     9    1
     9     9    10   ar
    10    10    11   ar
    11    11    12   ar
    12    12    13   ar
    13    13    14   ar
    14     1    15    1
    15    15    16   ar
    16    16    17   ar
    17    17    18   ar
    18    18    19   ar
    19    19    20   ar
    20     1    21    1
    21    21    22   ar
    22    22    23   ar
    23    23    24   ar
    24    24    25   ar
    25     8     3   ar
    26    14     9   ar
    27    20    15   ar
    28    25    21   ar
@<TRIPOS>MOLECULE
*****
 25 28 0 0 0
SMALL
GASTEIGER

@<TRIPOS>ATOM
      1 C         141.1229  141.4317  164.6058 C.3     1  UNL1        0.1275
      2 CL        138.7731  141.8667  162.9696 Cl      1  UNL1       -0.0825
      3 C         138.9158  142.3495  163.5878 C.ar    1  UNL1        0.0560
      4 C         137.7917  143.3425  163.6049 C.ar    1  UNL1        0.0112
      5 C         137.7507  144.4108  164.6570 C.ar    1  UNL1        0.0008
      6 C         138.8336  144.4860  165.6921 C.ar    1  UNL1       -0.0002
      7 C         139.9577  143.4930  165.6750 C.ar    1  UNL1       -0.0011
      8 C         139.9988  142.4247  164.6228 C.ar    1  UNL1        0.0146
      9 C         140.1898  140.3668  165.1012 C.ar    1  UNL1        0.0040
     10 C         139.5669  140.4885  166.4603 C.ar    1  UNL1       -0.0019
     11 C         138.6338  139.4236  166.9557 C.ar    1  UNL1       -0.0002
     12 C         138.3236  138.2371  166.0920 C.ar    1  UNL1       -0.0000
     13 C         138.9465  138.1155  164.7329 C.ar    1  UNL1       -0.0002
     14 C         139.8796  139.1803  164.2375 C.ar    1  UNL1       -0.0019
     15 C         142.0560  142.4965  164.1104 C.ar    1  UNL1        0.0040
     16 C         143.0787  143.0871  165.0352 C.ar    1  UNL1       -0.0019
     17 C         144.0118  144.1519  164.5398 C.ar    1  UNL1       -0.0002
     18 C         143.9222  144.6262  163.1196 C.ar    1  UNL1       -0.0000
     19 C         142.8996  144.0356  162.1947 C.ar    1  UNL1       -0.0002
     20 C         141.9664  142.9707  162.6901 C.ar    1  UNL1       -0.0019
     21 N         142.2470  140.4387  164.5887 N.ar    1  UNL1       -0.3008
     22 C         142.8824  139.8055  165.7909 C.ar    1  UNL1        0.0987
     23 C         143.9612  138.8800  165.3117 C.ar    1  UNL1        0.1193
     24 N         143.9925  138.9412  163.8132 N.ar    1  UNL1       -0.2223
     25 C         142.9331  139.9045  163.3664 C.ar    1  UNL1        0.1792
@<TRIPOS>BOND
     1     2     3    1
     2     3     4   ar
     3     4     5   ar
     4     5     6   ar
     5     6     7   ar
     6     7     8   ar
     7     8     1    1
     8     1     9    1
     9     9    10   ar
    10    10    11   ar
    11    11    12   ar
    12    12    13   ar
    13    13    14   ar
    14     1    15    1
    15    15    16   ar
    16    16    17   ar
    17    17    18   ar
    18    18    19   ar
    19    19    20   ar
    20     1    21    1
    21    21    22   ar
    22    22    23   ar
    23    23    24   ar
    24    24    25   ar
    25     8     3   ar
    26    14     9   ar
    27    20    15   ar
    28    25    21   ar
@<TRIPOS>MOLECULE
*****
 25 28 0 0 0
SMALL
GASTEIGER

@<TRIPOS>ATOM
      1 C         141.1222  141.4577  164.5847 C.3     1  UNL1        0.1275
      2 CL        138.7851  141.9014  162.9328 Cl      1  UNL1       -0.0825
      3 C         138.9203  142.3777  163.5576 C.ar    1  UNL1        0.0560
      4 C         137.7919  143.3657  163.5759 C.ar    1  UNL1        0.0112
      5 C         137.7369  144.4219  164.6396 C.ar    1  UNL1        0.0008
      6 C         138.8104  144.4900  165.6851 C.ar    1  UNL1       -0.0002
      7 C         139.9388  143.5019  165.6667 C.ar    1  UNL1       -0.0011
      8 C         139.9938  142.4458  164.6030 C.ar    1  UNL1        0.0146
      9 C         142.0511  142.5275  164.0922 C.ar    1  UNL1        0.0040
     10 C         143.0766  143.1142  165.0164 C.ar    1  UNL1       -0.0019
     11 C         144.0055  144.1841  164.5237 C.ar    1  UNL1       -0.0002
     12 C         143.9088  144.6673  163.1070 C.ar    1  UNL1       -0.0000
     13 C         142.8832  144.0806  162.1828 C.ar    1  UNL1       -0.0002
     14 C         141.9544  143.0108  162.6754 C.ar    1  UNL1       -0.0019
     15 C         140.1934  140.3878  165.0773 C.ar    1  UNL1        0.0040
     16 C         139.5737  140.5010  166.4386 C.ar    1  UNL1       -0.0019
     17 C         138.6449  139.4312  166.9312 C.ar    1  UNL1       -0.0002
     18 C         138.3357  138.2481  166.0624 C.ar    1  UNL1       -0.0000
     19 C         138.9554  138.1349  164.7011 C.ar    1  UNL1       -0.0002
     20 C         139.8842  139.2047  164.2085 C.ar    1  UNL1       -0.0019
     21 N         142.2506  140.4696  164.5665 N.ar    1  UNL1       -0.3008
     22 C         142.8943  139.8440  165.7683 C.ar    1  UNL1        0.0987
     23 C         143.9750  138.9214  165.2878 C.ar    1  UNL1        0.1193
     24 N         143.9993  138.9768  163.7889 N.ar    1  UNL1       -0.2223
     25 C         142.9336  139.9336  163.3432 C.ar    1  UNL1        0.1792
@<TRIPOS>BOND
     1     2     3    1
     2     3     4   ar
     3     4     5   ar
     4     5     6   ar
     5     6     7   ar
     6     7     8   ar
     7     8     1    1
     8     1     9    1
     9     9    10   ar
    10    10    11   ar
    11    11    12   ar
    12    12    13   ar
    13    13    14   ar
    14     1    15    1
    15    15    16   ar
    16    16    17   ar
    17    17    18   ar
    18    18    19   ar
    19    19    20   ar
    20     1    21    1
    21    21    22   ar
    22    22    23   ar
    23    23    24   ar
    24    24    25   ar
    25     8     3   ar
    26    14     9   ar
    27    20    15   ar
    28    25    21   ar
@<TRIPOS>MOLECULE
*****
 25 28 0 0 0
SMALL
GASTEIGER

@<TRIPOS>ATOM
      1 C         141.0643  141.4753  164.8339 C.3     1  UNL1        0.1275
      2 CL        142.7105  140.2011  166.8474 Cl      1  UNL1       -0.0825
      3 C         142.2226  140.7953  167.0579 C.ar    1  UNL1        0.0560
      4 C         142.4121  140.9826  168.5340 C.ar    1  UNL1        0.0112
      5 C         141.6327  142.0372  169.2624 C.ar    1  UNL1        0.0008
      6 C         140.6639  142.9044  168.5146 C.ar    1  UNL1       -0.0002
      7 C         140.4744  142.7171  167.0385 C.ar    1  UNL1       -0.0011
      8 C         141.2538  141.6626  166.3102 C.ar    1  UNL1        0.0146
      9 C         140.2383  140.2508  165.0953 C.ar    1  UNL1        0.0040
     10 C         138.9444  140.3650  165.8453 C.ar    1  UNL1       -0.0019
     11 C         138.1184  139.1404  166.1066 C.ar    1  UNL1       -0.0002
     12 C         138.5864  137.8017  165.6179 C.ar    1  UNL1       -0.0000
     13 C         139.8803  137.6876  164.8678 C.ar    1  UNL1       -0.0002
     14 C         140.7063  138.9121  164.6065 C.ar    1  UNL1       -0.0019
     15 C         141.8903  142.6998  164.5726 C.ar    1  UNL1        0.0040
     16 C         143.3762  142.6591  164.7735 C.ar    1  UNL1       -0.0019
     17 C         144.2022  143.8836  164.5122 C.ar    1  UNL1       -0.0002
     18 C         143.5423  145.1489  164.0500 C.ar    1  UNL1       -0.0000
     19 C         142.0564  145.1896  163.8491 C.ar    1  UNL1       -0.0002
     20 C         141.2303  143.9651  164.1105 C.ar    1  UNL1       -0.0019
     21 N         140.8748  141.2881  163.3578 N.ar    1  UNL1       -0.3008
     22 C         141.9351  140.8829  162.3772 C.ar    1  UNL1        0.0987
     23 C         141.3074  140.8176  161.0165 C.ar    1  UNL1        0.1193
     24 N         139.8591  141.1825  161.1560 N.ar    1  UNL1       -0.2223
     25 C         139.5918  141.4733  162.6031 C.ar    1  UNL1        0.1792
@<TRIPOS>BOND
     1     2     3    1
     2     3     4   ar
     3     4     5   ar
     4     5     6   ar
     5     6     7   ar
     6     7     8   ar
     7     8     1    1
     8     1     9    1
     9     9    10   ar
    10    10    11   ar
    11    11    12   ar
    12    12    13   ar
    13    13    14   ar
    14     1    15    1
    15    15    16   ar
    16    16    17   ar
    17    17    18   ar
    18    18    19   ar
    19    19    20   ar
    20     1    21    1
    21    21    22   ar
    22    22    23   ar
    23    23    24   ar
    24    24    25   ar
    25     8     3   ar
    26    14     9   ar
    27    20    15   ar
    28    25    21   ar
@<TRIPOS>MOLECULE
*****
 25 28 0 0 0
SMALL
GASTEIGER

@<TRIPOS>ATOM
      1 C         141.0669  141.4723  164.8428 C.3     1  UNL1        0.1275
      2 CL        142.7115  140.1824  166.8477 Cl      1  UNL1       -0.0825
      3 C         142.2291  140.7802  167.0610 C.ar    1  UNL1        0.0560
      4 C         142.4261  140.9639  168.5366 C.ar    1  UNL1        0.0112
      5 C         141.6580  142.0234  169.2696 C.ar    1  UNL1        0.0008
      6 C         140.6929  142.8993  168.5271 C.ar    1  UNL1       -0.0002
      7 C         140.4959  142.7156  167.0515 C.ar    1  UNL1       -0.0011
      8 C         141.2640  141.6560  166.3185 C.ar    1  UNL1        0.0146
      9 C         141.8966  142.6939  164.5799 C.ar    1  UNL1        0.0040
     10 C         143.3838  142.6454  164.7690 C.ar    1  UNL1       -0.0019
     11 C         144.2135  143.8672  164.5060 C.ar    1  UNL1       -0.0002
     12 C         143.5560  145.1373  164.0540 C.ar    1  UNL1       -0.0000
     13 C         142.0688  145.1858  163.8649 C.ar    1  UNL1       -0.0002
     14 C         141.2391  143.9641  164.1278 C.ar    1  UNL1       -0.0019
     15 C         140.2372  140.2507  165.1057 C.ar    1  UNL1        0.0040
     16 C         140.6965  138.9113  164.6106 C.ar    1  UNL1       -0.0019
     17 C         139.8668  137.6896  164.8735 C.ar    1  UNL1       -0.0002
     18 C         138.5778  137.8073  165.6316 C.ar    1  UNL1       -0.0000
     19 C         138.1185  139.1467  166.1267 C.ar    1  UNL1       -0.0002
     20 C         138.9482  140.3684  165.8638 C.ar    1  UNL1       -0.0019
     21 N         140.8698  141.2886  163.3672 N.ar    1  UNL1       -0.3008
     22 C         141.9237  140.8801  162.3811 C.ar    1  UNL1        0.0987
     23 C         141.2895  140.8201  161.0231 C.ar    1  UNL1        0.1193
     24 N         139.8436  141.1916  161.1699 N.ar    1  UNL1       -0.2223
     25 C         139.5842  141.4811  162.6187 C.ar    1  UNL1        0.1792
@<TRIPOS>BOND
     1     2     3    1
     2     3     4   ar
     3     4     5   ar
     4     5     6   ar
     5     6     7   ar
     6     7     8   ar
     7     8     1    1
     8     1     9    1
     9     9    10   ar
    10    10    11   ar
    11    11    12   ar
    12    12    13   ar
    13    13    14   ar
    14     1    15    1
    15    15    16   ar
    16    16    17   ar
    17    17    18   ar
    18    18    19   ar
    19    19    20   ar
    20     1    21    1
    21    21    22   ar
    22    22    23   ar
    23    23    24   ar
    24    24    25   ar
    25     8     3   ar
    26    14     9   ar
    27    20    15   ar
    28    25    21   ar
