@<TRIPOS>MOLECULE
*****
 25 28 0 0 0
SMALL
GASTEIGER

@<TRIPOS>ATOM
      1 C         140.6599  142.0761  165.1289 C.3     1  UNL1        0.1140
      2 C         141.8396  142.9689  164.8814 C.ar    1  UNL1        0.0273
      3 C         143.2909  142.8361  165.2367 C.ar    1  UNL1        0.1379
      4 F         143.7733  141.6258  165.9798 F       1  UNL1       -0.2044
      5 C         144.2596  143.9137  164.8489 C.ar    1  UNL1        0.0294
      6 C         143.7771  145.1240  164.1058 C.ar    1  UNL1        0.0023
      7 C         142.3258  145.2568  163.7505 C.ar    1  UNL1        0.0014
      8 C         141.3571  144.1793  164.1383 C.ar    1  UNL1        0.0173
      9 C         139.8792  144.0345  163.9265 C.ar    1  UNL1        0.0804
     10 C         138.6676  144.6932  163.3363 C.ar    1  UNL1        0.1178
     11 N         137.4879  143.8004  163.5838 N.ar    1  UNL1       -0.2223
     12 C         137.9704  142.5900  164.3269 C.ar    1  UNL1        0.1788
     13 N         139.4483  142.7347  164.5387 N.ar    1  UNL1       -0.3068
     14 C         140.6870  140.7564  165.8414 C.3     1  UNL1        0.0565
     15 O         139.2344  139.7879  167.7655 O.3     1  UNL1       -0.3844
     16 C         140.3433  140.6843  167.2997 C.3     1  UNL1        0.1127
     17 H         138.8469  139.3301  167.0032 H       1  UNL1        0.2103
     18 C         141.1086  141.5084  168.2923 C.3     1  UNL1        0.0272
     19 C         140.4715  142.7151  168.9150 C.3     1  UNL1        0.0049
     20 C         141.2368  143.5392  169.9076 C.3     1  UNL1        0.0293
     21 C         142.6392  143.1566  170.2774 C.3     1  UNL1        0.1105
     22 O         143.4045  143.9807  171.2700 O.3     1  UNL1       -0.3845
     23 C         143.2764  141.9498  169.6546 C.3     1  UNL1        0.0293
     24 C         142.5111  141.1257  168.6621 C.3     1  UNL1        0.0049
     25 H         144.2874  143.5989  171.3949 H       1  UNL1        0.2103
@<TRIPOS>BOND
     1    16    15    1
     2    16    14    1
     3     1    14    1
     4     1     2    1
     5     2     3   ar
     6     3     4    1
     7     3     5   ar
     8     5     6   ar
     9     6     7   ar
    10     7     8   ar
    11     8     9    1
    12     9    10   ar
    13    10    11   ar
    14    11    12   ar
    15    12    13   ar
    16    16    18    1
    17    18    19    1
    18    19    20    1
    19    20    21    1
    20    21    22    1
    21    21    23    1
    22    23    24    1
    23    13     1    1
    24    24    18    1
    25     8     2   ar
    26    13     9   ar
    27    15    17    1
    28    22    25    1
@<TRIPOS>MOLECULE
*****
 25 28 0 0 0
SMALL
GASTEIGER

@<TRIPOS>ATOM
      1 C         142.3471  140.9682  165.1824 C.3     1  UNL1        0.1140
      2 C         141.5439  142.2105  164.9339 C.ar    1  UNL1        0.0273
      3 C         140.1735  142.6258  165.3806 C.ar    1  UNL1        0.1379
      4 F         139.3557  141.7096  166.2417 F       1  UNL1       -0.2044
      5 C         139.6211  143.9574  164.9661 C.ar    1  UNL1        0.0294
      6 C         140.4390  144.8735  164.1050 C.ar    1  UNL1        0.0023
      7 C         141.8094  144.4582  163.6583 C.ar    1  UNL1        0.0014
      8 C         142.3619  143.1267  164.0728 C.ar    1  UNL1        0.0173
      9 C         143.6705  142.4507  163.7891 C.ar    1  UNL1        0.0804
     10 C         144.9848  142.5991  163.0815 C.ar    1  UNL1        0.1178
     11 N         145.7879  141.3568  163.3299 N.ar    1  UNL1       -0.2223
     12 C         144.9700  140.4406  164.1911 C.ar    1  UNL1        0.1788
     13 N         143.6614  141.1166  164.4748 N.ar    1  UNL1       -0.3068
     14 C         141.9123  139.7851  165.9956 C.3     1  UNL1        0.0565
     15 O         143.2225  138.7971  168.0099 O.3     1  UNL1       -0.3844
     16 C         142.1924  139.7438  167.4686 C.3     1  UNL1        0.1127
     17 H         143.6098  138.2890  167.2801 H       1  UNL1        0.2103
     18 C         141.4426  140.6491  168.4004 C.3     1  UNL1        0.0272
     19 C         141.9477  142.0361  168.6667 C.3     1  UNL1        0.0049
     20 C         141.1979  142.9414  169.5985 C.3     1  UNL1        0.0293
     21 C         139.9429  142.4596  170.2640 C.3     1  UNL1        0.1105
     22 O         139.1931  143.3649  171.1958 O.3     1  UNL1       -0.3845
     23 C         139.4377  141.0725  169.9977 C.3     1  UNL1        0.0293
     24 C         140.1876  140.1672  169.0659 C.3     1  UNL1        0.0049
     25 H         138.4119  142.9022  171.5372 H       1  UNL1        0.2103
@<TRIPOS>BOND
     1    16    15    1
     2    16    14    1
     3     1    14    1
     4     1     2    1
     5     2     3   ar
     6     3     4    1
     7     3     5   ar
     8     5     6   ar
     9     6     7   ar
    10     7     8   ar
    11     8     9    1
    12     9    10   ar
    13    10    11   ar
    14    11    12   ar
    15    12    13   ar
    16    16    18    1
    17    18    19    1
    18    19    20    1
    19    20    21    1
    20    21    22    1
    21    21    23    1
    22    23    24    1
    23    13     1    1
    24    24    18    1
    25     8     2   ar
    26    13     9   ar
    27    15    17    1
    28    22    25    1
@<TRIPOS>MOLECULE
*****
 25 28 0 0 0
SMALL
GASTEIGER

@<TRIPOS>ATOM
      1 C         139.4530  140.3036  164.9339 C.3     1  UNL1        0.1140
      2 C         139.0103  141.7023  164.6212 C.ar    1  UNL1        0.0273
      3 C         139.2256  143.0057  165.3317 C.ar    1  UNL1        0.1379
      4 F         140.0168  143.0438  166.6054 F       1  UNL1       -0.2044
      5 C         138.6495  144.2710  164.7684 C.ar    1  UNL1        0.0294
      6 C         137.8582  144.2327  163.4947 C.ar    1  UNL1        0.0023
      7 C         137.6430  142.9293  162.7842 C.ar    1  UNL1        0.0014
      8 C         138.2191  141.6641  163.3474 C.ar    1  UNL1        0.0173
      9 C         138.1727  140.2418  162.8730 C.ar    1  UNL1        0.0804
     10 C         137.6550  139.3393  161.7925 C.ar    1  UNL1        0.1178
     11 N         138.0977  137.9407  162.1053 N.ar    1  UNL1       -0.2223
     12 C         138.8889  137.9788  163.3790 C.ar    1  UNL1        0.1788
     13 N         138.9353  139.4010  163.8535 N.ar    1  UNL1       -0.3068
     14 C         140.2700  139.8816  166.1191 C.3     1  UNL1        0.0565
     15 O         138.3319  139.0230  167.6214 O.3     1  UNL1       -0.3844
     16 C         139.6274  139.7638  167.4693 C.3     1  UNL1        0.1127
     17 H         138.0490  138.6855  166.7571 H       1  UNL1        0.2103
     18 C         140.2802  140.3868  168.6675 C.3     1  UNL1        0.0272
     19 C         139.5675  141.4587  169.4375 C.3     1  UNL1        0.0049
     20 C         140.2203  142.0817  170.6357 C.3     1  UNL1        0.0293
     21 C         141.5860  141.6327  171.0639 C.3     1  UNL1        0.1105
     22 O         142.2388  142.2557  172.2621 O.3     1  UNL1       -0.3845
     23 C         142.2988  140.5607  170.2940 C.3     1  UNL1        0.0293
     24 C         141.6460  139.9378  169.0958 C.3     1  UNL1        0.0049
     25 H         143.1112  141.8546  172.4001 H       1  UNL1        0.2103
@<TRIPOS>BOND
     1    16    15    1
     2    16    14    1
     3     1    14    1
     4     1     2    1
     5     2     3   ar
     6     3     4    1
     7     3     5   ar
     8     5     6   ar
     9     6     7   ar
    10     7     8   ar
    11     8     9    1
    12     9    10   ar
    13    10    11   ar
    14    11    12   ar
    15    12    13   ar
    16    16    18    1
    17    18    19    1
    18    19    20    1
    19    20    21    1
    20    21    22    1
    21    21    23    1
    22    23    24    1
    23    13     1    1
    24    24    18    1
    25     8     2   ar
    26    13     9   ar
    27    15    17    1
    28    22    25    1
@<TRIPOS>MOLECULE
*****
 25 28 0 0 0
SMALL
GASTEIGER

@<TRIPOS>ATOM
      1 C         141.4564  141.1679  165.4857 C.3     1  UNL1        0.1140
      2 C         142.8473  141.1105  164.9268 C.ar    1  UNL1        0.0273
      3 C         143.8881  140.0305  164.9342 C.ar    1  UNL1        0.1379
      4 F         143.5995  138.7152  165.5949 F       1  UNL1       -0.2044
      5 C         145.2177  140.2658  164.2807 C.ar    1  UNL1        0.0294
      6 C         145.5063  141.5811  163.6200 C.ar    1  UNL1        0.0023
      7 C         144.4654  142.6611  163.6126 C.ar    1  UNL1        0.0014
      8 C         143.1358  142.4259  164.2660 C.ar    1  UNL1        0.0173
      9 C         141.9234  143.2962  164.4166 C.ar    1  UNL1        0.0804
     10 C         141.3525  144.6469  164.1012 C.ar    1  UNL1        0.1178
     11 N         139.9618  144.7043  164.6601 N.ar    1  UNL1       -0.2223
     12 C         139.6731  143.3890  165.3209 C.ar    1  UNL1        0.1788
     13 N         140.8855  142.5187  165.1704 N.ar    1  UNL1       -0.3068
     14 C         140.7590  140.0677  166.2294 C.3     1  UNL1        0.0565
     15 O         139.1493  139.5484  168.2016 O.3     1  UNL1       -0.3844
     16 C         140.3446  140.2724  167.6564 C.3     1  UNL1        0.1127
     17 H         138.7626  138.9934  167.5063 H       1  UNL1        0.2103
     18 C         141.1256  141.2010  168.5383 C.3     1  UNL1        0.0272
     19 C         140.4940  142.4645  169.0428 C.3     1  UNL1        0.0049
     20 C         141.2749  143.3931  169.9247 C.3     1  UNL1        0.0293
     21 C         142.6875  143.0582  170.3021 C.3     1  UNL1        0.1105
     22 O         143.4684  143.9869  171.1841 O.3     1  UNL1       -0.3845
     23 C         143.3192  141.7947  169.7977 C.3     1  UNL1        0.0293
     24 C         142.5382  140.8660  168.9157 C.3     1  UNL1        0.0049
     25 H         144.3563  143.6244  171.3294 H       1  UNL1        0.2103
@<TRIPOS>BOND
     1    16    15    1
     2    16    14    1
     3     1    14    1
     4     1     2    1
     5     2     3   ar
     6     3     4    1
     7     3     5   ar
     8     5     6   ar
     9     6     7   ar
    10     7     8   ar
    11     8     9    1
    12     9    10   ar
    13    10    11   ar
    14    11    12   ar
    15    12    13   ar
    16    16    18    1
    17    18    19    1
    18    19    20    1
    19    20    21    1
    20    21    22    1
    21    21    23    1
    22    23    24    1
    23    13     1    1
    24    24    18    1
    25     8     2   ar
    26    13     9   ar
    27    15    17    1
    28    22    25    1
@<TRIPOS>MOLECULE
*****
 25 28 0 0 0
SMALL
GASTEIGER

@<TRIPOS>ATOM
      1 C         141.2226  140.3252  165.0515 C.3     1  UNL1        0.1140
      2 C         140.0221  141.1773  164.7636 C.ar    1  UNL1        0.0273
      3 C         139.6277  142.5467  165.2317 C.ar    1  UNL1        0.1379
      4 F         140.5219  143.3062  166.1663 F       1  UNL1       -0.2044
      5 C         138.3391  143.1566  164.7652 C.ar    1  UNL1        0.0294
      6 C         137.4450  142.3970  163.8306 C.ar    1  UNL1        0.0023
      7 C         137.8394  141.0276  163.3625 C.ar    1  UNL1        0.0014
      8 C         139.1280  140.4177  163.8289 C.ar    1  UNL1        0.0173
      9 C         139.7758  139.0962  163.5392 C.ar    1  UNL1        0.0804
     10 C         139.6235  137.8101  162.7825 C.ar    1  UNL1        0.1178
     11 N         140.8240  136.9580  163.0704 N.ar    1  UNL1       -0.2223
     12 C         141.7182  137.7175  164.0050 C.ar    1  UNL1        0.1788
     13 N         141.0703  139.0390  164.2948 N.ar    1  UNL1       -0.3068
     14 C         142.3733  140.6945  165.9401 C.3     1  UNL1        0.0565
     15 O         143.1592  139.1066  167.8404 O.3     1  UNL1       -0.3844
     16 C         142.3633  140.2940  167.3855 C.3     1  UNL1        0.1127
     17 H         143.6180  138.7147  167.0809 H       1  UNL1        0.2103
     18 C         141.5573  141.0807  168.3762 C.3     1  UNL1        0.0272
     19 C         140.2225  140.5700  168.8315 C.3     1  UNL1        0.0049
     20 C         139.4166  141.3568  169.8222 C.3     1  UNL1        0.0293
     21 C         139.9455  142.6543  170.3576 C.3     1  UNL1        0.1105
     22 O         139.1395  143.4411  171.3483 O.3     1  UNL1       -0.3845
     23 C         141.2804  143.1651  169.9023 C.3     1  UNL1        0.0293
     24 C         142.0863  142.3783  168.9116 C.3     1  UNL1        0.0049
     25 H         139.6219  144.2472  171.5900 H       1  UNL1        0.2103
@<TRIPOS>BOND
     1    16    15    1
     2    16    14    1
     3     1    14    1
     4     1     2    1
     5     2     3   ar
     6     3     4    1
     7     3     5   ar
     8     5     6   ar
     9     6     7   ar
    10     7     8   ar
    11     8     9    1
    12     9    10   ar
    13    10    11   ar
    14    11    12   ar
    15    12    13   ar
    16    16    18    1
    17    18    19    1
    18    19    20    1
    19    20    21    1
    20    21    22    1
    21    21    23    1
    22    23    24    1
    23    13     1    1
    24    24    18    1
    25     8     2   ar
    26    13     9   ar
    27    15    17    1
    28    22    25    1
@<TRIPOS>MOLECULE
*****
 25 28 0 0 0
SMALL
GASTEIGER

@<TRIPOS>ATOM
      1 C         140.9938  141.8602  165.2951 C.3     1  UNL1        0.1140
      2 C         139.9772  142.7039  164.5845 C.ar    1  UNL1        0.0273
      3 C         138.4990  142.5414  164.3876 C.ar    1  UNL1        0.1379
      4 F         137.7921  141.3505  164.9636 F       1  UNL1       -0.2044
      5 C         137.7279  143.5700  163.6147 C.ar    1  UNL1        0.0294
      6 C         138.4349  144.7609  163.0387 C.ar    1  UNL1        0.0023
      7 C         139.9130  144.9234  163.2356 C.ar    1  UNL1        0.0014
      8 C         140.6842  143.8949  164.0085 C.ar    1  UNL1        0.0173
      9 C         142.1377  143.7873  164.3631 C.ar    1  UNL1        0.0804
     10 C         143.4729  144.4569  164.2262 C.ar    1  UNL1        0.1178
     11 N         144.4895  143.6133  164.9367 N.ar    1  UNL1       -0.2223
     12 C         143.7826  142.4223  165.5127 C.ar    1  UNL1        0.1788
     13 N         142.3291  142.5299  165.1582 N.ar    1  UNL1       -0.3068
     14 C         140.7228  140.5730  166.0159 C.3     1  UNL1        0.0565
     15 O         139.2309  139.7496  167.9772 O.3     1  UNL1       -0.3844
     16 C         140.3666  140.5900  167.4729 C.3     1  UNL1        0.1127
     17 H         138.8372  139.2608  167.2377 H       1  UNL1        0.2103
     18 C         141.1460  141.4472  168.4256 C.3     1  UNL1        0.0272
     19 C         142.5579  141.0838  168.7783 C.3     1  UNL1        0.0049
     20 C         143.3373  141.9410  169.7311 C.3     1  UNL1        0.0293
     21 C         142.7049  143.1616  170.3311 C.3     1  UNL1        0.1105
     22 O         143.4843  144.0188  171.2838 O.3     1  UNL1       -0.3845
     23 C         141.2929  143.5250  169.9784 C.3     1  UNL1        0.0293
     24 C         140.5135  142.6678  169.0256 C.3     1  UNL1        0.0049
     25 H         142.9327  144.7611  171.5762 H       1  UNL1        0.2103
@<TRIPOS>BOND
     1    16    15    1
     2    16    14    1
     3     1    14    1
     4     1     2    1
     5     2     3   ar
     6     3     4    1
     7     3     5   ar
     8     5     6   ar
     9     6     7   ar
    10     7     8   ar
    11     8     9    1
    12     9    10   ar
    13    10    11   ar
    14    11    12   ar
    15    12    13   ar
    16    16    18    1
    17    18    19    1
    18    19    20    1
    19    20    21    1
    20    21    22    1
    21    21    23    1
    22    23    24    1
    23    13     1    1
    24    24    18    1
    25     8     2   ar
    26    13     9   ar
    27    15    17    1
    28    22    25    1
@<TRIPOS>MOLECULE
*****
 25 28 0 0 0
SMALL
GASTEIGER

@<TRIPOS>ATOM
      1 C         139.5355  139.5460  164.7013 C.3     1  UNL1        0.1140
      2 C         140.5793  139.4957  165.7775 C.ar    1  UNL1        0.0273
      3 C         140.6010  140.0262  167.1803 C.ar    1  UNL1        0.1379
      4 F         139.4125  140.7639  167.7216 F       1  UNL1       -0.2044
      5 C         141.8114  139.8190  168.0419 C.ar    1  UNL1        0.0294
      6 C         142.9999  139.0813  167.5005 C.ar    1  UNL1        0.0023
      7 C         142.9782  138.5507  166.0976 C.ar    1  UNL1        0.0014
      8 C         141.7679  138.7579  165.2361 C.ar    1  UNL1        0.0173
      9 C         141.4587  138.3523  163.8254 C.ar    1  UNL1        0.0804
     10 C         142.0022  137.6458  162.6191 C.ar    1  UNL1        0.1178
     11 N         140.9584  137.6962  161.5430 N.ar    1  UNL1       -0.2223
     12 C         139.7698  138.4339  162.0843 C.ar    1  UNL1        0.1788
     13 N         140.0790  138.8395  163.4950 N.ar    1  UNL1       -0.3068
     14 C         138.1853  140.1900  164.8122 C.3     1  UNL1        0.0565
     15 O         136.5368  141.2324  163.0958 O.3     1  UNL1       -0.3844
     16 C         137.8095  141.3085  163.8861 C.3     1  UNL1        0.1127
     17 H         136.0791  140.4018  163.2992 H       1  UNL1        0.2103
     18 C         138.7064  142.5032  163.7503 C.3     1  UNL1        0.0272
     19 C         138.5995  143.6362  164.7274 C.3     1  UNL1        0.0049
     20 C         139.4964  144.8308  164.5916 C.3     1  UNL1        0.0293
     21 C         140.5002  144.8924  163.4786 C.3     1  UNL1        0.1105
     22 O         141.3970  146.0871  163.3428 O.3     1  UNL1       -0.3845
     23 C         140.6071  143.7594  162.5015 C.3     1  UNL1        0.0293
     24 C         139.7102  142.5647  162.6373 C.3     1  UNL1        0.0049
     25 H         141.9813  145.9674  162.5778 H       1  UNL1        0.2103
@<TRIPOS>BOND
     1    16    15    1
     2    16    14    1
     3     1    14    1
     4     1     2    1
     5     2     3   ar
     6     3     4    1
     7     3     5   ar
     8     5     6   ar
     9     6     7   ar
    10     7     8   ar
    11     8     9    1
    12     9    10   ar
    13    10    11   ar
    14    11    12   ar
    15    12    13   ar
    16    16    18    1
    17    18    19    1
    18    19    20    1
    19    20    21    1
    20    21    22    1
    21    21    23    1
    22    23    24    1
    23    13     1    1
    24    24    18    1
    25     8     2   ar
    26    13     9   ar
    27    15    17    1
    28    22    25    1
@<TRIPOS>MOLECULE
*****
 25 28 0 0 0
SMALL
GASTEIGER

@<TRIPOS>ATOM
      1 C         140.6323  141.8191  164.7004 C.3     1  UNL1        0.1140
      2 C         141.8230  142.7276  164.6160 C.ar    1  UNL1        0.0273
      3 C         143.2617  142.5342  164.9937 C.ar    1  UNL1        0.1379
      4 F         143.7154  141.2282  165.5753 F       1  UNL1       -0.2044
      5 C         144.2468  143.6470  164.7897 C.ar    1  UNL1        0.0294
      6 C         143.7930  144.9530  164.2080 C.ar    1  UNL1        0.0023
      7 C         142.3543  145.1463  163.8304 C.ar    1  UNL1        0.0014
      8 C         141.3692  144.0337  164.0344 C.ar    1  UNL1        0.0173
      9 C         139.8981  143.9324  163.7593 C.ar    1  UNL1        0.0804
     10 C         138.7086  144.6771  163.2298 C.ar    1  UNL1        0.1178
     11 N         137.5179  143.7687  163.3142 N.ar    1  UNL1       -0.2223
     12 C         137.9716  142.4626  163.8958 C.ar    1  UNL1        0.1788
     13 N         139.4427  142.5638  164.1709 N.ar    1  UNL1       -0.3068
     14 C         140.6314  140.4130  165.2226 C.3     1  UNL1        0.0565
     15 O         138.4011  139.5782  166.2614 O.3     1  UNL1       -0.3844
     16 C         139.8114  140.0612  166.4284 C.3     1  UNL1        0.1127
     17 H         138.1780  139.5517  165.3178 H       1  UNL1        0.2103
     18 C         140.4016  140.1925  167.8011 C.3     1  UNL1        0.0272
     19 C         141.8897  140.1512  167.9848 C.3     1  UNL1        0.0049
     20 C         142.4799  140.2825  169.3575 C.3     1  UNL1        0.0293
     21 C         141.5820  140.4550  170.5466 C.3     1  UNL1        0.1105
     22 O         142.1722  140.5863  171.9193 O.3     1  UNL1       -0.3845
     23 C         140.0938  140.4963  170.3630 C.3     1  UNL1        0.0293
     24 C         139.5036  140.3650  168.9902 C.3     1  UNL1        0.0049
     25 H         141.4595  140.6898  172.5692 H       1  UNL1        0.2103
@<TRIPOS>BOND
     1    16    15    1
     2    16    14    1
     3     1    14    1
     4     1     2    1
     5     2     3   ar
     6     3     4    1
     7     3     5   ar
     8     5     6   ar
     9     6     7   ar
    10     7     8   ar
    11     8     9    1
    12     9    10   ar
    13    10    11   ar
    14    11    12   ar
    15    12    13   ar
    16    16    18    1
    17    18    19    1
    18    19    20    1
    19    20    21    1
    20    21    22    1
    21    21    23    1
    22    23    24    1
    23    13     1    1
    24    24    18    1
    25     8     2   ar
    26    13     9   ar
    27    15    17    1
    28    22    25    1
@<TRIPOS>MOLECULE
*****
 25 28 0 0 0
SMALL
GASTEIGER

@<TRIPOS>ATOM
      1 C         140.1022  139.5901  164.8903 C.3     1  UNL1        0.1140
      2 C         140.6139  140.4433  166.0130 C.ar    1  UNL1        0.0273
      3 C         141.6824  140.2149  167.0406 C.ar    1  UNL1        0.1379
      4 F         142.4536  138.9285  167.0476 F       1  UNL1       -0.2044
      5 C         141.9796  141.2732  168.0614 C.ar    1  UNL1        0.0294
      6 C         141.2083  142.5596  168.0544 C.ar    1  UNL1        0.0023
      7 C         140.1397  142.7879  167.0268 C.ar    1  UNL1        0.0014
      8 C         139.8425  141.7298  166.0060 C.ar    1  UNL1        0.0173
      9 C         138.8542  141.6717  164.8791 C.ar    1  UNL1        0.0804
     10 C         137.7668  142.4309  164.1783 C.ar    1  UNL1        0.1178
     11 N         137.2552  141.5777  163.0557 N.ar    1  UNL1       -0.2223
     12 C         138.0265  140.2912  163.0626 C.ar    1  UNL1        0.1788
     13 N         139.0148  140.3493  164.1895 N.ar    1  UNL1       -0.3068
     14 C         140.5921  138.2185  164.5314 C.3     1  UNL1        0.0565
     15 O         141.4760  136.9258  162.4583 O.3     1  UNL1       -0.3844
     16 C         141.6126  138.0469  163.4455 C.3     1  UNL1        0.1127
     17 H         140.6800  136.4104  162.6624 H       1  UNL1        0.2103
     18 C         142.7697  138.9963  163.3469 C.3     1  UNL1        0.0272
     19 C         143.8983  138.9080  164.3310 C.3     1  UNL1        0.0049
     20 C         145.0554  139.8573  164.2324 C.3     1  UNL1        0.0293
     21 C         145.0840  140.8950  163.1496 C.3     1  UNL1        0.1105
     22 O         146.2411  141.8444  163.0510 O.3     1  UNL1       -0.3845
     23 C         143.9554  140.9834  162.1655 C.3     1  UNL1        0.0293
     24 C         142.7983  140.0340  162.2641 C.3     1  UNL1        0.0049
     25 H         146.1033  142.4454  162.3022 H       1  UNL1        0.2103
@<TRIPOS>BOND
     1    16    15    1
     2    16    14    1
     3     1    14    1
     4     1     2    1
     5     2     3   ar
     6     3     4    1
     7     3     5   ar
     8     5     6   ar
     9     6     7   ar
    10     7     8   ar
    11     8     9    1
    12     9    10   ar
    13    10    11   ar
    14    11    12   ar
    15    12    13   ar
    16    16    18    1
    17    18    19    1
    18    19    20    1
    19    20    21    1
    20    21    22    1
    21    21    23    1
    22    23    24    1
    23    13     1    1
    24    24    18    1
    25     8     2   ar
    26    13     9   ar
    27    15    17    1
    28    22    25    1
