@<TRIPOS>MOLECULE
*****
 49 54 0 0 0
SMALL
GASTEIGER

@<TRIPOS>ATOM
      1 C         142.2482  139.8283  158.1678 C.ar    1  UNL1        0.1208
      2 C         142.3695  138.3855  157.7757 C.ar    1  UNL1        0.0933
      3 C         143.3245  137.9805  156.6922 C.ar    1  UNL1        0.2638
      4 O         143.4458  136.5378  156.3001 O.2     1  UNL1       -0.2670
      5 N         144.1583  139.0183  156.0009 N.ar    1  UNL1       -0.2743
      6 C         144.0370  140.4610  156.3930 C.ar    1  UNL1        0.3316
      7 O         144.8708  141.4988  155.7017 O.2     1  UNL1       -0.2464
      8 N         143.0820  140.8661  157.4765 N.ar    1  UNL1       -0.2653
      9 H         144.7851  138.7525  155.2898 H       1  UNL1        0.1734
     10 O         137.2060  142.2495  162.1633 O.2     1  UNL1       -0.2699
     11 C         138.4281  141.4483  162.5017 C.2     1  UNL1        0.2491
     12 N         139.3832  141.0433  161.4182 N.am    1  UNL1       -0.2726
     13 C         140.6052  140.2421  161.7566 C.3     1  UNL1        0.1152
     14 C         141.5603  139.8371  160.6732 C.3     1  UNL1        0.1136
     15 N         141.2932  140.2333  159.2513 N.pl3   1  UNL1       -0.2908
     16 C         140.0711  141.0345  158.9129 C.3     1  UNL1        0.1136
     17 C         139.1161  141.4395  159.9964 C.3     1  UNL1        0.1152
     18 C         138.6952  141.0520  163.9235 C.ar    1  UNL1        0.0536
     19 C         139.4114  141.9961  164.8433 C.ar    1  UNL1        0.0054
     20 C         139.6785  141.5999  166.2652 C.ar    1  UNL1        0.0115
     21 C         139.2294  140.2596  166.7672 C.ar    1  UNL1        0.0616
     22 CL        139.4964  139.8634  168.1891 Cl      1  UNL1       -0.0823
     23 C         138.5132  139.3156  165.8475 C.ar    1  UNL1        0.0821
     24 C         138.2461  139.7119  164.4256 C.ar    1  UNL1        0.0092
     25 C         138.0641  137.9754  166.3496 C.3     1  UNL1        0.4194
     26 F         137.6150  136.6352  166.8518 F       1  UNL1       -0.1658
     27 F         139.0766  137.3060  165.4683 F       1  UNL1       -0.1658
     28 F         137.0516  138.6449  167.2309 F       1  UNL1       -0.1658
     29 C         142.9607  142.3088  157.8686 C.3     1  UNL1        0.1384
     30 C         143.2749  142.7334  159.2726 C.ar    1  UNL1        0.0008
     31 C         142.3442  143.6554  160.0032 C.ar    1  UNL1        0.0008
     32 C         142.6584  144.0800  161.4072 C.ar    1  UNL1        0.0396
     33 C         143.9031  143.5826  162.0804 C.ar    1  UNL1        0.1736
     34 C         144.8336  142.6606  161.3498 C.ar    1  UNL1        0.0396
     35 C         144.5195  142.2360  159.9458 C.ar    1  UNL1        0.0008
     36 O         144.2172  144.0072  163.4844 O.3     1  UNL1       -0.3410
     37 S         143.8591  143.1148  164.6357 S.O2    1  UNL1        0.1522
     38 O         145.2785  142.6349  164.7052 O.2     1  UNL1       -0.1313
     39 O         142.4397  143.5947  164.5662 O.2     1  UNL1       -0.1313
     40 C         143.5010  142.2224  165.7870 C.ar    1  UNL1        0.1448
     41 C         143.4170  142.7858  167.1747 C.ar    1  UNL1        0.0219
     42 C         143.0589  141.8934  168.3259 C.ar    1  UNL1        0.0015
     43 C         142.7848  140.4377  168.0896 C.ar    1  UNL1        0.0016
     44 C         142.8689  139.8744  166.7019 C.ar    1  UNL1        0.0205
     45 C         142.5948  138.4187  166.4655 C.ar    1  UNL1        0.0989
     46 N         142.6789  137.8554  165.0778 N.ar    1  UNL1       -0.2423
     47 C         143.0369  138.7477  163.9265 C.ar    1  UNL1        0.0989
     48 C         143.3110  140.2035  164.1629 C.ar    1  UNL1        0.0221
     49 C         143.2270  140.7668  165.5506 C.ar    1  UNL1        0.0236
@<TRIPOS>BOND
     1    10    11    2
     2    11    18    1
     3    18    19   ar
     4    19    20   ar
     5    20    21   ar
     6    21    22    1
     7    21    23   ar
     8    23    25    1
     9    25    26    1
    10    25    27    1
    11    25    28    1
    12    23    24   ar
    13    11    12   am
    14    12    13    1
    15    13    14    1
    16    14    15    1
    17    15     1    1
    18     1     2   ar
    19     2     3   ar
    20     3     4    2
    21     3     5   ar
    22     5     6   ar
    23     6     7    2
    24     6     8   ar
    25     8    29    1
    26    29    30    1
    27    30    31   ar
    28    31    32   ar
    29    32    33   ar
    30    33    36    1
    31    36    37    1
    32    37    38    2
    33    37    39    2
    34    37    40    1
    35    40    41   ar
    36    41    42   ar
    37    42    43   ar
    38    43    44   ar
    39    44    45   ar
    40    45    46   ar
    41    46    47   ar
    42    47    48   ar
    43    48    49   ar
    44    33    34   ar
    45    34    35   ar
    46    15    16    1
    47    16    17    1
    48    24    18   ar
    49    17    12    1
    50     8     1   ar
    51    35    30   ar
    52    49    40   ar
    53    49    44   ar
    54     5     9    1
@<TRIPOS>MOLECULE
*****
 49 54 0 0 0
SMALL
GASTEIGER

@<TRIPOS>ATOM
      1 C         142.0528  137.8228  157.2094 C.ar    1  UNL1        0.1208
      2 C         142.8450  136.6122  156.8132 C.ar    1  UNL1        0.0933
      3 C         142.1815  135.4930  156.0668 C.ar    1  UNL1        0.2638
      4 O         142.9737  134.2825  155.6706 O.2     1  UNL1       -0.2670
      5 N         140.7258  135.5843  155.7166 N.ar    1  UNL1       -0.2743
      6 C         139.9336  136.7949  156.1129 C.ar    1  UNL1        0.3316
      7 O         138.4779  136.8862  155.7627 O.2     1  UNL1       -0.2464
      8 N         140.5971  137.9141  156.8593 N.ar    1  UNL1       -0.2653
      9 H         140.2903  134.8498  155.2268 H       1  UNL1        0.1734
     10 O         145.5784  143.2766  159.4626 O.2     1  UNL1       -0.2699
     11 C         144.7069  142.2997  160.1949 C.2     1  UNL1        0.2491
     12 N         144.0434  141.1805  159.4486 N.am    1  UNL1       -0.2726
     13 C         143.1719  140.2036  160.1809 C.3     1  UNL1        0.1152
     14 C         142.5084  139.0844  159.4345 C.3     1  UNL1        0.1136
     15 N         142.7163  138.9420  157.9558 N.pl3   1  UNL1       -0.2908
     16 C         143.5878  139.9189  157.2235 C.3     1  UNL1        0.1136
     17 C         144.2513  141.0381  157.9699 C.3     1  UNL1        0.1152
     18 C         144.4989  142.4420  161.6736 C.ar    1  UNL1        0.0536
     19 C         145.4785  141.8304  162.6310 C.ar    1  UNL1        0.0054
     20 C         145.2705  141.9728  164.1097 C.ar    1  UNL1        0.0115
     21 C         144.0831  142.7267  164.6310 C.ar    1  UNL1        0.0616
     22 CL        143.8752  142.8690  166.1097 Cl      1  UNL1       -0.0823
     23 C         143.1036  143.3382  163.6736 C.ar    1  UNL1        0.0821
     24 C         143.3116  143.1959  162.1949 C.ar    1  UNL1        0.0092
     25 C         141.9163  144.0921  164.1949 C.3     1  UNL1        0.4194
     26 F         140.7289  144.8461  164.7162 F       1  UNL1       -0.1658
     27 F         141.2370  142.7956  164.5226 F       1  UNL1       -0.1658
     28 F         142.5956  145.3886  163.8671 F       1  UNL1       -0.1658
     29 C         139.8049  139.1246  157.2555 C.3     1  UNL1        0.1384
     30 C         139.2850  139.2552  158.6565 C.ar    1  UNL1        0.0008
     31 C         139.4309  138.1148  159.6199 C.ar    1  UNL1        0.0008
     32 C         138.9110  138.2453  161.0209 C.ar    1  UNL1        0.0396
     33 C         138.2452  139.5163  161.4584 C.ar    1  UNL1        0.1736
     34 C         138.0993  140.6567  160.4949 C.ar    1  UNL1        0.0396
     35 C         138.6192  140.5261  159.0940 C.ar    1  UNL1        0.0008
     36 O         137.7253  139.6469  162.8593 O.3     1  UNL1       -0.3410
     37 S         138.6835  139.7195  164.0112 S.O2    1  UNL1        0.1522
     38 O         138.8915  141.1811  163.7460 O.2     1  UNL1       -0.1313
     39 O         138.4755  138.2579  164.2764 O.2     1  UNL1       -0.1313
     40 C         139.6416  139.7921  165.1629 C.ar    1  UNL1        0.1448
     41 C         139.1543  140.2097  166.5187 C.ar    1  UNL1        0.0219
     42 C         140.1125  140.2823  167.6705 C.ar    1  UNL1        0.0015
     43 C         141.5580  139.9374  167.4665 C.ar    1  UNL1        0.0016
     44 C         142.0453  139.5199  166.1107 C.ar    1  UNL1        0.0205
     45 C         143.4908  139.1750  165.9067 C.ar    1  UNL1        0.0989
     46 N         143.9781  138.7575  164.5509 N.ar    1  UNL1       -0.2423
     47 C         143.0199  138.6849  163.3991 C.ar    1  UNL1        0.0989
     48 C         141.5744  139.0297  163.6031 C.ar    1  UNL1        0.0221
     49 C         141.0871  139.4473  164.9589 C.ar    1  UNL1        0.0236
@<TRIPOS>BOND
     1    10    11    2
     2    11    18    1
     3    18    19   ar
     4    19    20   ar
     5    20    21   ar
     6    21    22    1
     7    21    23   ar
     8    23    25    1
     9    25    26    1
    10    25    27    1
    11    25    28    1
    12    23    24   ar
    13    11    12   am
    14    12    13    1
    15    13    14    1
    16    14    15    1
    17    15     1    1
    18     1     2   ar
    19     2     3   ar
    20     3     4    2
    21     3     5   ar
    22     5     6   ar
    23     6     7    2
    24     6     8   ar
    25     8    29    1
    26    29    30    1
    27    30    31   ar
    28    31    32   ar
    29    32    33   ar
    30    33    36    1
    31    36    37    1
    32    37    38    2
    33    37    39    2
    34    37    40    1
    35    40    41   ar
    36    41    42   ar
    37    42    43   ar
    38    43    44   ar
    39    44    45   ar
    40    45    46   ar
    41    46    47   ar
    42    47    48   ar
    43    48    49   ar
    44    33    34   ar
    45    34    35   ar
    46    15    16    1
    47    16    17    1
    48    24    18   ar
    49    17    12    1
    50     8     1   ar
    51    35    30   ar
    52    49    40   ar
    53    49    44   ar
    54     5     9    1
@<TRIPOS>MOLECULE
*****
 49 54 0 0 0
SMALL
GASTEIGER

@<TRIPOS>ATOM
      1 C         141.9378  141.9281  167.5832 C.ar    1  UNL1        0.1208
      2 C         143.0328  142.7334  168.2178 C.ar    1  UNL1        0.0933
      3 C         143.7388  142.2120  169.4342 C.ar    1  UNL1        0.2638
      4 O         144.8337  143.0174  170.0686 O.2     1  UNL1       -0.2670
      5 N         143.3499  140.8854  170.0161 N.ar    1  UNL1       -0.2743
      6 C         142.2550  140.0800  169.3816 C.ar    1  UNL1        0.3316
      7 O         141.8661  138.7534  169.9636 O.2     1  UNL1       -0.2464
      8 N         141.5489  140.6014  168.1652 N.ar    1  UNL1       -0.2653
      9 H         143.8133  140.5432  170.8145 H       1  UNL1        0.1734
     10 O         137.7732  144.6733  162.8535 O.2     1  UNL1       -0.2699
     11 C         139.1136  144.0137  162.7177 C.2     1  UNL1        0.2491
     12 N         139.8196  143.4923  163.9341 N.am    1  UNL1       -0.2726
     13 C         141.1600  142.8328  163.7982 C.3     1  UNL1        0.1152
     14 C         141.8661  142.3114  165.0146 C.3     1  UNL1        0.1136
     15 N         141.2318  142.4495  166.3669 N.pl3   1  UNL1       -0.2908
     16 C         139.8914  143.1091  166.5027 C.3     1  UNL1        0.1136
     17 C         139.1853  143.6304  165.2863 C.3     1  UNL1        0.1152
     18 C         139.7479  143.8756  161.3654 C.ar    1  UNL1        0.0536
     19 C         140.9424  144.7099  161.0086 C.ar    1  UNL1        0.0054
     20 C         141.5767  144.5718  159.6563 C.ar    1  UNL1        0.0115
     21 C         141.0165  143.5994  158.6609 C.ar    1  UNL1        0.0616
     22 CL        141.6509  143.4613  157.3087 Cl      1  UNL1       -0.0823
     23 C         139.8221  142.7652  159.0178 C.ar    1  UNL1        0.0821
     24 C         139.1878  142.9033  160.3701 C.ar    1  UNL1        0.0092
     25 C         139.2620  141.7929  158.0224 C.3     1  UNL1        0.4194
     26 F         138.7019  140.8205  157.0270 F       1  UNL1       -0.1658
     27 F         138.2793  142.8290  157.5633 F       1  UNL1       -0.1658
     28 F         140.2447  140.7568  158.4815 F       1  UNL1       -0.1658
     29 C         140.4540  139.7961  167.5307 C.3     1  UNL1        0.1384
     30 C         140.6713  139.1602  166.1897 C.ar    1  UNL1        0.0008
     31 C         142.0586  138.8030  165.7450 C.ar    1  UNL1        0.0008
     32 C         142.2759  138.1671  164.4039 C.ar    1  UNL1        0.0396
     33 C         141.1058  137.8885  163.5076 C.ar    1  UNL1        0.1736
     34 C         139.7186  138.2457  163.9523 C.ar    1  UNL1        0.0396
     35 C         139.5013  138.8816  165.2933 C.ar    1  UNL1        0.0008
     36 O         141.3231  137.2526  162.1665 O.3     1  UNL1       -0.3410
     37 S         141.9219  138.0505  161.0463 S.O2    1  UNL1        0.1522
     38 O         140.5986  138.7174  160.8140 O.2     1  UNL1       -0.1313
     39 O         143.2453  137.3837  161.2786 O.2     1  UNL1       -0.1313
     40 C         142.5206  138.8484  159.9261 C.ar    1  UNL1        0.1448
     41 C         142.4376  138.3420  158.5166 C.ar    1  UNL1        0.0219
     42 C         143.0363  139.1399  157.3965 C.ar    1  UNL1        0.0015
     43 C         143.7181  140.4444  157.6857 C.ar    1  UNL1        0.0016
     44 C         143.8011  140.9508  159.0952 C.ar    1  UNL1        0.0205
     45 C         144.4829  142.2552  159.3845 C.ar    1  UNL1        0.0989
     46 N         144.5659  142.7617  160.7940 N.ar    1  UNL1       -0.2423
     47 C         143.9672  141.9638  161.9141 C.ar    1  UNL1        0.0989
     48 C         143.2854  140.6593  161.6249 C.ar    1  UNL1        0.0221
     49 C         143.2024  140.1528  160.2154 C.ar    1  UNL1        0.0236
@<TRIPOS>BOND
     1    10    11    2
     2    11    18    1
     3    18    19   ar
     4    19    20   ar
     5    20    21   ar
     6    21    22    1
     7    21    23   ar
     8    23    25    1
     9    25    26    1
    10    25    27    1
    11    25    28    1
    12    23    24   ar
    13    11    12   am
    14    12    13    1
    15    13    14    1
    16    14    15    1
    17    15     1    1
    18     1     2   ar
    19     2     3   ar
    20     3     4    2
    21     3     5   ar
    22     5     6   ar
    23     6     7    2
    24     6     8   ar
    25     8    29    1
    26    29    30    1
    27    30    31   ar
    28    31    32   ar
    29    32    33   ar
    30    33    36    1
    31    36    37    1
    32    37    38    2
    33    37    39    2
    34    37    40    1
    35    40    41   ar
    36    41    42   ar
    37    42    43   ar
    38    43    44   ar
    39    44    45   ar
    40    45    46   ar
    41    46    47   ar
    42    47    48   ar
    43    48    49   ar
    44    33    34   ar
    45    34    35   ar
    46    15    16    1
    47    16    17    1
    48    24    18   ar
    49    17    12    1
    50     8     1   ar
    51    35    30   ar
    52    49    40   ar
    53    49    44   ar
    54     5     9    1
@<TRIPOS>MOLECULE
*****
 49 54 0 0 0
SMALL
GASTEIGER

@<TRIPOS>ATOM
      1 C         141.3102  143.0872  156.2338 C.ar    1  UNL1        0.1208
      2 C         142.4940  143.4409  155.3831 C.ar    1  UNL1        0.0933
      3 C         142.6172  142.8783  153.9981 C.ar    1  UNL1        0.2638
      4 O         143.8010  143.2320  153.1476 O.2     1  UNL1       -0.2670
      5 N         141.5567  141.9619  153.4637 N.ar    1  UNL1       -0.2743
      6 C         140.3729  141.6082  154.3143 C.ar    1  UNL1        0.3316
      7 O         139.3124  140.6919  153.7799 O.2     1  UNL1       -0.2464
      8 N         140.2496  142.1709  155.6993 N.ar    1  UNL1       -0.2653
      9 H         141.6376  141.5927  152.5547 H       1  UNL1        0.1734
     10 O         140.0300  146.5935  162.0059 O.2     1  UNL1       -0.2699
     11 C         140.8171  145.3379  161.7737 C.2     1  UNL1        0.2491
     12 N         140.9404  144.7752  160.3887 N.am    1  UNL1       -0.2726
     13 C         141.7275  143.5197  160.1566 C.3     1  UNL1        0.1152
     14 C         141.8508  142.9570  158.7716 C.3     1  UNL1        0.1136
     15 N         141.1869  143.6499  157.6187 N.pl3   1  UNL1       -0.2908
     16 C         140.3998  144.9055  157.8509 C.3     1  UNL1        0.1136
     17 C         140.2765  145.4682  159.2359 C.3     1  UNL1        0.1152
     18 C         141.4810  144.6450  162.9266 C.ar    1  UNL1        0.0536
     19 C         142.9588  144.7904  163.1388 C.ar    1  UNL1        0.0054
     20 C         143.6227  144.0975  164.2917 C.ar    1  UNL1        0.0115
     21 C         142.8088  143.2591  165.2323 C.ar    1  UNL1        0.0616
     22 CL        143.4727  142.5662  166.3852 Cl      1  UNL1       -0.0823
     23 C         141.3311  143.1137  165.0200 C.ar    1  UNL1        0.0821
     24 C         140.6672  143.8066  163.8672 C.ar    1  UNL1        0.0092
     25 C         140.5172  142.2753  165.9606 C.3     1  UNL1        0.4194
     26 F         139.7033  141.4370  166.9013 F       1  UNL1       -0.1658
     27 F         140.9403  141.0388  165.2246 F       1  UNL1       -0.1658
     28 F         140.0941  143.5119  166.6967 F       1  UNL1       -0.1658
     29 C         139.0659  141.8172  156.5499 C.3     1  UNL1        0.1384
     30 C         139.2284  140.8782  157.7083 C.ar    1  UNL1        0.0008
     31 C         138.3132  140.9823  158.8922 C.ar    1  UNL1        0.0008
     32 C         138.4757  140.0433  160.0506 C.ar    1  UNL1        0.0396
     33 C         139.5535  139.0003  160.0251 C.ar    1  UNL1        0.1736
     34 C         140.4686  138.8963  158.8413 C.ar    1  UNL1        0.0396
     35 C         140.3061  139.8352  157.6828 C.ar    1  UNL1        0.0008
     36 O         139.7160  138.0613  161.1835 O.3     1  UNL1       -0.3410
     37 S         140.7682  138.3239  162.2199 S.O2    1  UNL1        0.1522
     38 O         141.6391  137.2701  161.6027 O.2     1  UNL1       -0.1313
     39 O         139.8973  139.3777  162.8372 O.2     1  UNL1       -0.1313
     40 C         141.8204  138.5865  163.2562 C.ar    1  UNL1        0.1448
     41 C         141.7383  137.9154  164.5952 C.ar    1  UNL1        0.0219
     42 C         142.7904  138.1779  165.6315 C.ar    1  UNL1        0.0015
     43 C         143.9248  139.1116  165.3289 C.ar    1  UNL1        0.0016
     44 C         144.0069  139.7827  163.9899 C.ar    1  UNL1        0.0205
     45 C         145.1411  140.7164  163.6872 C.ar    1  UNL1        0.0989
     46 N         145.2232  141.3875  162.3482 N.ar    1  UNL1       -0.2423
     47 C         144.1711  141.1249  161.3119 C.ar    1  UNL1        0.0989
     48 C         143.0367  140.1912  161.6146 C.ar    1  UNL1        0.0221
     49 C         142.9546  139.5201  162.9536 C.ar    1  UNL1        0.0236
@<TRIPOS>BOND
     1    10    11    2
     2    11    18    1
     3    18    19   ar
     4    19    20   ar
     5    20    21   ar
     6    21    22    1
     7    21    23   ar
     8    23    25    1
     9    25    26    1
    10    25    27    1
    11    25    28    1
    12    23    24   ar
    13    11    12   am
    14    12    13    1
    15    13    14    1
    16    14    15    1
    17    15     1    1
    18     1     2   ar
    19     2     3   ar
    20     3     4    2
    21     3     5   ar
    22     5     6   ar
    23     6     7    2
    24     6     8   ar
    25     8    29    1
    26    29    30    1
    27    30    31   ar
    28    31    32   ar
    29    32    33   ar
    30    33    36    1
    31    36    37    1
    32    37    38    2
    33    37    39    2
    34    37    40    1
    35    40    41   ar
    36    41    42   ar
    37    42    43   ar
    38    43    44   ar
    39    44    45   ar
    40    45    46   ar
    41    46    47   ar
    42    47    48   ar
    43    48    49   ar
    44    33    34   ar
    45    34    35   ar
    46    15    16    1
    47    16    17    1
    48    24    18   ar
    49    17    12    1
    50     8     1   ar
    51    35    30   ar
    52    49    40   ar
    53    49    44   ar
    54     5     9    1
@<TRIPOS>MOLECULE
*****
 49 54 0 0 0
SMALL
GASTEIGER

@<TRIPOS>ATOM
      1 C         144.8320  142.1391  157.3965 C.ar    1  UNL1        0.1208
      2 C         146.2821  142.4599  157.1853 C.ar    1  UNL1        0.0933
      3 C         146.9960  141.9412  155.9724 C.ar    1  UNL1        0.2638
      4 O         148.4460  142.2620  155.7614 O.2     1  UNL1       -0.2670
      5 N         146.2600  141.1018  154.9706 N.ar    1  UNL1       -0.2743
      6 C         144.8100  140.7810  155.1817 C.ar    1  UNL1        0.3316
      7 O         144.0740  139.9416  154.1799 O.2     1  UNL1       -0.2464
      8 N         144.0960  141.2997  156.3946 N.ar    1  UNL1       -0.2653
      9 H         146.7286  140.7614  154.1745 H       1  UNL1        0.1734
     10 O         140.8503  145.1933  162.0942 O.2     1  UNL1       -0.2699
     11 C         141.9760  144.2139  162.2481 C.2     1  UNL1        0.2491
     12 N         142.6900  143.6952  161.0352 N.am    1  UNL1       -0.2726
     13 C         143.8157  142.7159  161.1892 C.3     1  UNL1        0.1152
     14 C         144.5297  142.1972  159.9762 C.3     1  UNL1        0.1136
     15 N         144.1180  142.6578  158.6094 N.pl3   1  UNL1       -0.2908
     16 C         142.9923  143.6372  158.4554 C.3     1  UNL1        0.1136
     17 C         142.2783  144.1559  159.6683 C.3     1  UNL1        0.1152
     18 C         142.3877  143.7532  163.6150 C.ar    1  UNL1        0.0536
     19 C         143.7988  143.9566  164.0815 C.ar    1  UNL1        0.0054
     20 C         144.2105  143.4959  165.4484 C.ar    1  UNL1        0.0115
     21 C         143.2111  142.8319  166.3487 C.ar    1  UNL1        0.0616
     22 CL        143.6228  142.3713  167.7155 Cl      1  UNL1       -0.0823
     23 C         141.8001  142.6286  165.8821 C.ar    1  UNL1        0.0821
     24 C         141.3884  143.0893  164.5152 C.ar    1  UNL1        0.0092
     25 C         140.8008  141.9647  166.7824 C.3     1  UNL1        0.4194
     26 F         139.8014  141.3007  167.6827 F       1  UNL1       -0.1658
     27 F         141.2035  140.6249  166.2413 F       1  UNL1       -0.1658
     28 F         140.3981  143.3044  167.3234 F       1  UNL1       -0.1658
     29 C         142.6460  140.9790  156.6057 C.3     1  UNL1        0.1384
     30 C         142.2292  140.1142  157.7583 C.ar    1  UNL1        0.0008
     31 C         140.9776  140.4333  158.5212 C.ar    1  UNL1        0.0008
     32 C         140.5608  139.5685  159.6738 C.ar    1  UNL1        0.0396
     33 C         141.3956  138.3847  160.0635 C.ar    1  UNL1        0.1736
     34 C         142.6471  138.0657  159.3007 C.ar    1  UNL1        0.0396
     35 C         143.0639  138.9305  158.1481 C.ar    1  UNL1        0.0008
     36 O         140.9788  137.5200  161.2161 O.3     1  UNL1       -0.3410
     37 S         140.2257  138.1171  162.3678 S.O2    1  UNL1        0.1522
     38 O         141.5175  138.5844  162.9701 O.2     1  UNL1       -0.1313
     39 O         138.9339  137.6497  161.7655 O.2     1  UNL1       -0.1313
     40 C         139.4727  138.7142  163.5195 C.ar    1  UNL1        0.1448
     41 C         139.2193  137.8993  164.7531 C.ar    1  UNL1        0.0219
     42 C         138.4663  138.4964  165.9048 C.ar    1  UNL1        0.0015
     43 C         137.9666  139.9085  165.8229 C.ar    1  UNL1        0.0016
     44 C         138.2201  140.7233  164.5893 C.ar    1  UNL1        0.0205
     45 C         137.7205  142.1352  164.5073 C.ar    1  UNL1        0.0989
     46 N         137.9739  142.9501  163.2737 N.ar    1  UNL1       -0.2423
     47 C         138.7269  142.3530  162.1221 C.ar    1  UNL1        0.0989
     48 C         139.2265  140.9410  162.2040 C.ar    1  UNL1        0.0221
     49 C         138.9731  140.1261  163.4376 C.ar    1  UNL1        0.0236
@<TRIPOS>BOND
     1    10    11    2
     2    11    18    1
     3    18    19   ar
     4    19    20   ar
     5    20    21   ar
     6    21    22    1
     7    21    23   ar
     8    23    25    1
     9    25    26    1
    10    25    27    1
    11    25    28    1
    12    23    24   ar
    13    11    12   am
    14    12    13    1
    15    13    14    1
    16    14    15    1
    17    15     1    1
    18     1     2   ar
    19     2     3   ar
    20     3     4    2
    21     3     5   ar
    22     5     6   ar
    23     6     7    2
    24     6     8   ar
    25     8    29    1
    26    29    30    1
    27    30    31   ar
    28    31    32   ar
    29    32    33   ar
    30    33    36    1
    31    36    37    1
    32    37    38    2
    33    37    39    2
    34    37    40    1
    35    40    41   ar
    36    41    42   ar
    37    42    43   ar
    38    43    44   ar
    39    44    45   ar
    40    45    46   ar
    41    46    47   ar
    42    47    48   ar
    43    48    49   ar
    44    33    34   ar
    45    34    35   ar
    46    15    16    1
    47    16    17    1
    48    24    18   ar
    49    17    12    1
    50     8     1   ar
    51    35    30   ar
    52    49    40   ar
    53    49    44   ar
    54     5     9    1
@<TRIPOS>MOLECULE
*****
 49 54 0 0 0
SMALL
GASTEIGER

@<TRIPOS>ATOM
      1 C         140.8354  142.3470  168.1410 C.ar    1  UNL1        0.1208
      2 C         140.4334  143.5701  168.9108 C.ar    1  UNL1        0.0933
      3 C         139.8869  143.4352  170.3012 C.ar    1  UNL1        0.2638
      4 O         139.4849  144.6583  171.0709 O.2     1  UNL1       -0.2670
      5 N         139.7424  142.0773  170.9218 N.ar    1  UNL1       -0.2743
      6 C         140.1444  140.8543  170.1520 C.ar    1  UNL1        0.3316
      7 O         139.9999  139.4963  170.7727 O.2     1  UNL1       -0.2464
      8 N         140.6909  140.9891  168.7616 N.ar    1  UNL1       -0.2653
      9 H         139.3837  141.9888  171.8343 H       1  UNL1        0.1734
     10 O         144.4907  142.7148  162.3312 O.2     1  UNL1       -0.2699
     11 C         143.0213  142.8866  162.5795 C.2     1  UNL1        0.2491
     12 N         142.4749  142.7517  163.9699 N.am    1  UNL1       -0.2726
     13 C         141.0056  142.9236  164.2181 C.3     1  UNL1        0.1152
     14 C         140.4591  142.7887  165.6086 C.3     1  UNL1        0.1136
     15 N         141.3819  142.4819  166.7506 N.pl3   1  UNL1       -0.2908
     16 C         142.8512  142.3101  166.5023 C.3     1  UNL1        0.1136
     17 C         143.3977  142.4450  165.1120 C.3     1  UNL1        0.1152
     18 C         142.0985  143.1934  161.4374 C.ar    1  UNL1        0.0536
     19 C         140.6305  142.9119  161.5630 C.ar    1  UNL1        0.0054
     20 C         139.7077  143.2186  160.4209 C.ar    1  UNL1        0.0115
     21 C         140.2530  143.8069  159.1533 C.ar    1  UNL1        0.0616
     22 CL        139.3302  144.1136  158.0112 Cl      1  UNL1       -0.0823
     23 C         141.7209  144.0884  159.0278 C.ar    1  UNL1        0.0821
     24 C         142.6437  143.7816  160.1699 C.ar    1  UNL1        0.0092
     25 C         142.2661  144.6766  157.7603 C.3     1  UNL1        0.4194
     26 F         142.8113  145.2649  156.4927 F       1  UNL1       -0.1658
     27 F         142.5660  143.2984  157.2497 F       1  UNL1       -0.1658
     28 F         141.9662  146.0547  158.2708 F       1  UNL1       -0.1658
     29 C         141.0929  139.7661  167.9919 C.3     1  UNL1        0.1384
     30 C         140.4069  139.4338  166.7000 C.ar    1  UNL1        0.0008
     31 C         138.9129  139.5241  166.5993 C.ar    1  UNL1        0.0008
     32 C         138.2269  139.1918  165.3074 C.ar    1  UNL1        0.0396
     33 C         139.0348  138.7693  164.1162 C.ar    1  UNL1        0.1736
     34 C         140.5287  138.6791  164.2170 C.ar    1  UNL1        0.0396
     35 C         141.2147  139.0113  165.5088 C.ar    1  UNL1        0.0008
     36 O         138.3488  138.4370  162.8244 O.3     1  UNL1       -0.3410
     37 S         138.8834  138.9766  161.5308 S.O2    1  UNL1        0.1522
     38 O         139.3017  137.5939  161.1270 O.2     1  UNL1       -0.1313
     39 O         138.4651  140.3593  161.9346 O.2     1  UNL1       -0.1313
     40 C         139.4180  139.5161  160.2374 C.ar    1  UNL1        0.1448
     41 C         138.4754  139.8693  159.1253 C.ar    1  UNL1        0.0219
     42 C         139.0100  140.4088  157.8319 C.ar    1  UNL1        0.0015
     43 C         140.4874  140.5950  157.6504 C.ar    1  UNL1        0.0016
     44 C         141.4300  140.2418  158.7625 C.ar    1  UNL1        0.0205
     45 C         142.9073  140.4281  158.5811 C.ar    1  UNL1        0.0989
     46 N         143.8499  140.0748  159.6931 N.ar    1  UNL1       -0.2423
     47 C         143.3153  139.5354  160.9866 C.ar    1  UNL1        0.0989
     48 C         141.8379  139.3491  161.1680 C.ar    1  UNL1        0.0221
     49 C         140.8953  139.7023  160.0560 C.ar    1  UNL1        0.0236
@<TRIPOS>BOND
     1    10    11    2
     2    11    18    1
     3    18    19   ar
     4    19    20   ar
     5    20    21   ar
     6    21    22    1
     7    21    23   ar
     8    23    25    1
     9    25    26    1
    10    25    27    1
    11    25    28    1
    12    23    24   ar
    13    11    12   am
    14    12    13    1
    15    13    14    1
    16    14    15    1
    17    15     1    1
    18     1     2   ar
    19     2     3   ar
    20     3     4    2
    21     3     5   ar
    22     5     6   ar
    23     6     7    2
    24     6     8   ar
    25     8    29    1
    26    29    30    1
    27    30    31   ar
    28    31    32   ar
    29    32    33   ar
    30    33    36    1
    31    36    37    1
    32    37    38    2
    33    37    39    2
    34    37    40    1
    35    40    41   ar
    36    41    42   ar
    37    42    43   ar
    38    43    44   ar
    39    44    45   ar
    40    45    46   ar
    41    46    47   ar
    42    47    48   ar
    43    48    49   ar
    44    33    34   ar
    45    34    35   ar
    46    15    16    1
    47    16    17    1
    48    24    18   ar
    49    17    12    1
    50     8     1   ar
    51    35    30   ar
    52    49    40   ar
    53    49    44   ar
    54     5     9    1
@<TRIPOS>MOLECULE
*****
 49 54 0 0 0
SMALL
GASTEIGER

@<TRIPOS>ATOM
      1 C         142.4080  137.8393  157.1059 C.ar    1  UNL1        0.1208
      2 C         142.7195  136.3720  157.0925 C.ar    1  UNL1        0.0933
      3 C         143.7406  135.8308  156.1363 C.ar    1  UNL1        0.2638
      4 O         144.0520  134.3636  156.1229 O.2     1  UNL1       -0.2670
      5 N         144.4502  136.7568  155.1935 N.ar    1  UNL1       -0.2743
      6 C         144.1388  138.2240  155.2069 C.ar    1  UNL1        0.3316
      7 O         144.8484  139.1501  154.2641 O.2     1  UNL1       -0.2464
      8 N         143.1176  138.7653  156.1631 N.ar    1  UNL1       -0.2653
      9 H         145.1204  136.4016  154.5659 H       1  UNL1        0.1734
     10 O         136.9701  140.4141  160.4301 O.2     1  UNL1       -0.2699
     11 C         138.3234  140.0041  160.9308 C.2     1  UNL1        0.2491
     12 N         139.3445  139.4629  159.9746 N.am    1  UNL1       -0.2726
     13 C         140.6977  139.0530  160.4752 C.3     1  UNL1        0.1152
     14 C         141.7189  138.5118  159.5190 C.3     1  UNL1        0.1136
     15 N         141.3868  138.3805  158.0621 N.pl3   1  UNL1       -0.2908
     16 C         140.0335  138.7904  157.5615 C.3     1  UNL1        0.1136
     17 C         139.0124  139.3316  158.5177 C.3     1  UNL1        0.1152
     18 C         138.6555  140.1354  162.3877 C.ar    1  UNL1        0.0536
     19 C         139.2687  141.4025  162.9059 C.ar    1  UNL1        0.0054
     20 C         139.6008  141.5338  164.3628 C.ar    1  UNL1        0.0115
     21 C         139.3197  140.3980  165.3014 C.ar    1  UNL1        0.0616
     22 CL        139.6518  140.5293  166.7583 Cl      1  UNL1       -0.0823
     23 C         138.7065  139.1310  164.7831 C.ar    1  UNL1        0.0821
     24 C         138.3744  138.9997  163.3263 C.ar    1  UNL1        0.0092
     25 C         138.4254  137.9952  165.7218 C.3     1  UNL1        0.4194
     26 F         138.1444  136.8594  166.6604 F       1  UNL1       -0.1658
     27 F         137.3482  138.8055  166.3796 F       1  UNL1       -0.1658
     28 F         139.5027  137.1849  165.0639 F       1  UNL1       -0.1658
     29 C         142.8062  140.2325  156.1766 C.3     1  UNL1        0.1384
     30 C         143.0999  141.0505  157.3991 C.ar    1  UNL1        0.0008
     31 C         144.3322  140.7737  158.2084 C.ar    1  UNL1        0.0008
     32 C         144.6259  141.5917  159.4310 C.ar    1  UNL1        0.0396
     33 C         143.6872  142.6863  159.8443 C.ar    1  UNL1        0.1736
     34 C         142.4550  142.9630  159.0351 C.ar    1  UNL1        0.0396
     35 C         142.1613  142.1450  157.8125 C.ar    1  UNL1        0.0008
     36 O         143.9809  143.5042  161.0669 O.3     1  UNL1       -0.3410
     37 S         143.7300  142.9316  162.4305 S.O2    1  UNL1        0.1522
     38 O         145.1941  142.6409  162.5779 O.2     1  UNL1       -0.1313
     39 O         142.2658  143.2223  162.2831 O.2     1  UNL1       -0.1313
     40 C         143.4790  142.3590  163.7940 C.ar    1  UNL1        0.1448
     41 C         143.4699  143.2578  164.9948 C.ar    1  UNL1        0.0219
     42 C         143.2190  142.6852  166.3583 C.ar    1  UNL1        0.0015
     43 C         142.9772  141.2137  166.5210 C.ar    1  UNL1        0.0016
     44 C         142.9863  140.3149  165.3201 C.ar    1  UNL1        0.0205
     45 C         142.7446  138.8435  165.4827 C.ar    1  UNL1        0.0989
     46 N         142.7537  137.9447  164.2819 N.ar    1  UNL1       -0.2423
     47 C         143.0046  138.5173  162.9184 C.ar    1  UNL1        0.0989
     48 C         143.2464  139.9888  162.7557 C.ar    1  UNL1        0.0221
     49 C         143.2373  140.8876  163.9566 C.ar    1  UNL1        0.0236
@<TRIPOS>BOND
     1    10    11    2
     2    11    18    1
     3    18    19   ar
     4    19    20   ar
     5    20    21   ar
     6    21    22    1
     7    21    23   ar
     8    23    25    1
     9    25    26    1
    10    25    27    1
    11    25    28    1
    12    23    24   ar
    13    11    12   am
    14    12    13    1
    15    13    14    1
    16    14    15    1
    17    15     1    1
    18     1     2   ar
    19     2     3   ar
    20     3     4    2
    21     3     5   ar
    22     5     6   ar
    23     6     7    2
    24     6     8   ar
    25     8    29    1
    26    29    30    1
    27    30    31   ar
    28    31    32   ar
    29    32    33   ar
    30    33    36    1
    31    36    37    1
    32    37    38    2
    33    37    39    2
    34    37    40    1
    35    40    41   ar
    36    41    42   ar
    37    42    43   ar
    38    43    44   ar
    39    44    45   ar
    40    45    46   ar
    41    46    47   ar
    42    47    48   ar
    43    48    49   ar
    44    33    34   ar
    45    34    35   ar
    46    15    16    1
    47    16    17    1
    48    24    18   ar
    49    17    12    1
    50     8     1   ar
    51    35    30   ar
    52    49    40   ar
    53    49    44   ar
    54     5     9    1
@<TRIPOS>MOLECULE
*****
 49 54 0 0 0
SMALL
GASTEIGER

@<TRIPOS>ATOM
      1 C         142.4136  137.4689  157.2034 C.ar    1  UNL1        0.1208
      2 C         142.8731  136.0460  157.0840 C.ar    1  UNL1        0.0933
      3 C         142.4114  135.2029  155.9325 C.ar    1  UNL1        0.2638
      4 O         142.8709  133.7800  155.8132 O.2     1  UNL1       -0.2670
      5 N         141.4901  135.7826  154.9004 N.ar    1  UNL1       -0.2743
      6 C         141.0306  137.2054  155.0198 C.ar    1  UNL1        0.3316
      7 O         140.1094  137.7852  153.9877 O.2     1  UNL1       -0.2464
      8 N         141.4923  138.0487  156.1713 N.ar    1  UNL1       -0.2653
      9 H         141.1871  135.2292  154.1447 H       1  UNL1        0.1734
     10 O         145.1010  142.0583  161.5583 O.2     1  UNL1       -0.2699
     11 C         144.2605  140.8415  161.8093 C.2     1  UNL1        0.2491
     12 N         143.7988  139.9983  160.6579 N.am    1  UNL1       -0.2726
     13 C         142.9583  138.7816  160.9089 C.3     1  UNL1        0.1152
     14 C         142.4965  137.9384  159.7574 C.3     1  UNL1        0.1136
     15 N         142.8753  138.3120  158.3549 N.pl3   1  UNL1       -0.2908
     16 C         143.7158  139.5289  158.1039 C.3     1  UNL1        0.1136
     17 C         144.1775  140.3720  159.2554 C.3     1  UNL1        0.1152
     18 C         143.8817  140.4678  163.2118 C.ar    1  UNL1        0.0536
     19 C         144.7085  139.4737  163.9724 C.ar    1  UNL1        0.0054
     20 C         144.3297  139.1001  165.3749 C.ar    1  UNL1        0.0115
     21 C         143.1242  139.7205  166.0167 C.ar    1  UNL1        0.0616
     22 CL        142.7455  139.3469  167.4192 Cl      1  UNL1       -0.0823
     23 C         142.2976  140.7145  165.2562 C.ar    1  UNL1        0.0821
     24 C         142.6763  141.0882  163.8537 C.ar    1  UNL1        0.0092
     25 C         141.0922  141.3349  165.8981 C.3     1  UNL1        0.4194
     26 F         139.8867  141.9552  166.5400 F       1  UNL1       -0.1658
     27 F         141.9245  142.5058  166.3294 F       1  UNL1       -0.1658
     28 F         140.2599  140.1639  165.4668 F       1  UNL1       -0.1658
     29 C         141.0328  139.4715  156.2907 C.3     1  UNL1        0.1384
     30 C         140.1853  139.8907  157.4551 C.ar    1  UNL1        0.0008
     31 C         139.5131  138.8537  158.3054 C.ar    1  UNL1        0.0008
     32 C         138.6656  139.2730  159.4698 C.ar    1  UNL1        0.0396
     33 C         138.4901  140.7293  159.7840 C.ar    1  UNL1        0.1736
     34 C         139.1623  141.7662  158.9337 C.ar    1  UNL1        0.0396
     35 C         140.0098  141.3469  157.7693 C.ar    1  UNL1        0.0008
     36 O         137.6426  141.1485  160.9484 O.3     1  UNL1       -0.3410
     37 S         138.1902  142.1000  161.9705 S.O2    1  UNL1        0.1522
     38 O         138.8233  140.9523  162.6998 O.2     1  UNL1       -0.1313
     39 O         137.5572  143.2478  161.2413 O.2     1  UNL1       -0.1313
     40 C         138.7379  143.0515  162.9927 C.ar    1  UNL1        0.1448
     41 C         137.9202  143.4095  164.1982 C.ar    1  UNL1        0.0219
     42 C         138.4678  144.3609  165.2203 C.ar    1  UNL1        0.0015
     43 C         139.8332  144.9544  165.0370 C.ar    1  UNL1        0.0016
     44 C         140.6509  144.5964  163.8315 C.ar    1  UNL1        0.0205
     45 C         142.0162  145.1899  163.6481 C.ar    1  UNL1        0.0989
     46 N         142.8339  144.8319  162.4426 N.ar    1  UNL1       -0.2423
     47 C         142.2863  143.8805  161.4204 C.ar    1  UNL1        0.0989
     48 C         140.9209  143.2869  161.6038 C.ar    1  UNL1        0.0221
     49 C         140.1032  143.6449  162.8093 C.ar    1  UNL1        0.0236
@<TRIPOS>BOND
     1    10    11    2
     2    11    18    1
     3    18    19   ar
     4    19    20   ar
     5    20    21   ar
     6    21    22    1
     7    21    23   ar
     8    23    25    1
     9    25    26    1
    10    25    27    1
    11    25    28    1
    12    23    24   ar
    13    11    12   am
    14    12    13    1
    15    13    14    1
    16    14    15    1
    17    15     1    1
    18     1     2   ar
    19     2     3   ar
    20     3     4    2
    21     3     5   ar
    22     5     6   ar
    23     6     7    2
    24     6     8   ar
    25     8    29    1
    26    29    30    1
    27    30    31   ar
    28    31    32   ar
    29    32    33   ar
    30    33    36    1
    31    36    37    1
    32    37    38    2
    33    37    39    2
    34    37    40    1
    35    40    41   ar
    36    41    42   ar
    37    42    43   ar
    38    43    44   ar
    39    44    45   ar
    40    45    46   ar
    41    46    47   ar
    42    47    48   ar
    43    48    49   ar
    44    33    34   ar
    45    34    35   ar
    46    15    16    1
    47    16    17    1
    48    24    18   ar
    49    17    12    1
    50     8     1   ar
    51    35    30   ar
    52    49    40   ar
    53    49    44   ar
    54     5     9    1
@<TRIPOS>MOLECULE
*****
 49 54 0 0 0
SMALL
GASTEIGER

@<TRIPOS>ATOM
      1 C         141.5755  141.1839  167.5181 C.ar    1  UNL1        0.1208
      2 C         140.5502  141.7443  168.4588 C.ar    1  UNL1        0.0933
      3 C         140.3195  141.0942  169.7907 C.ar    1  UNL1        0.2638
      4 O         139.2942  141.6546  170.7312 O.2     1  UNL1       -0.2670
      5 N         141.1142  139.8837  170.1821 N.ar    1  UNL1       -0.2743
      6 C         142.1395  139.3233  169.2416 C.ar    1  UNL1        0.3316
      7 O         142.9341  138.1128  169.6330 O.2     1  UNL1       -0.2464
      8 N         142.3702  139.9734  167.9096 N.ar    1  UNL1       -0.2653
      9 H         140.9628  139.4571  171.0564 H       1  UNL1        0.1734
     10 O         143.7361  144.5989  161.9576 O.2     1  UNL1       -0.2699
     11 C         142.4982  143.7843  162.1903 C.2     1  UNL1        0.2491
     12 N         142.2675  143.1342  163.5222 N.am    1  UNL1       -0.2726
     13 C         141.0297  142.3196  163.7548 C.3     1  UNL1        0.1152
     14 C         140.7990  141.6695  165.0869 C.3     1  UNL1        0.1136
     15 N         141.8062  141.8340  166.1862 N.pl3   1  UNL1       -0.2908
     16 C         143.0440  142.6486  165.9535 C.3     1  UNL1        0.1136
     17 C         143.2747  143.2987  164.6216 C.3     1  UNL1        0.1152
     18 C         141.4910  143.6198  161.0909 C.ar    1  UNL1        0.0536
     19 C         140.5137  142.4826  161.1332 C.ar    1  UNL1        0.0054
     20 C         139.5065  142.3181  160.0338 C.ar    1  UNL1        0.0115
     21 C         139.4766  143.2908  158.8923 C.ar    1  UNL1        0.0616
     22 CL        138.4694  143.1263  157.7930 Cl      1  UNL1       -0.0823
     23 C         140.4539  144.4279  158.8501 C.ar    1  UNL1        0.0821
     24 C         141.4611  144.5924  159.9494 C.ar    1  UNL1        0.0092
     25 C         140.4240  145.4005  157.7086 C.3     1  UNL1        0.4194
     26 F         140.3941  146.3731  156.5670 F       1  UNL1       -0.1658
     27 F         139.6546  146.3705  158.5553 F       1  UNL1       -0.1658
     28 F         141.1935  144.4304  156.8619 F       1  UNL1       -0.1658
     29 C         143.3955  139.4130  166.9690 C.3     1  UNL1        0.1384
     30 C         142.9780  138.9036  165.6214 C.ar    1  UNL1        0.0008
     31 C         141.7179  138.1021  165.4799 C.ar    1  UNL1        0.0008
     32 C         141.3005  137.5927  164.1322 C.ar    1  UNL1        0.0396
     33 C         142.1431  137.8847  162.9260 C.ar    1  UNL1        0.1736
     34 C         143.4031  138.6862  163.0676 C.ar    1  UNL1        0.0396
     35 C         143.8206  139.1956  164.4152 C.ar    1  UNL1        0.0008
     36 O         141.7257  137.3753  161.5783 O.3     1  UNL1       -0.3410
     37 S         141.6881  138.3068  160.4031 S.O2    1  UNL1        0.1522
     38 O         140.5255  139.0311  161.0143 O.2     1  UNL1       -0.1313
     39 O         142.8508  137.5825  159.7919 O.2     1  UNL1       -0.1313
     40 C         141.6506  139.2382  159.2280 C.ar    1  UNL1        0.1448
     41 C         140.6480  139.0241  158.1330 C.ar    1  UNL1        0.0219
     42 C         140.6104  139.9555  156.9578 C.ar    1  UNL1        0.0015
     43 C         141.5755  141.1011  156.8776 C.ar    1  UNL1        0.0016
     44 C         142.5781  141.3152  157.9726 C.ar    1  UNL1        0.0205
     45 C         143.5431  142.4607  157.8925 C.ar    1  UNL1        0.0989
     46 N         144.5457  142.6748  158.9874 N.ar    1  UNL1       -0.2423
     47 C         144.5833  141.7434  160.1626 C.ar    1  UNL1        0.0989
     48 C         143.6182  140.5978  160.2428 C.ar    1  UNL1        0.0221
     49 C         142.6156  140.3837  159.1478 C.ar    1  UNL1        0.0236
@<TRIPOS>BOND
     1    10    11    2
     2    11    18    1
     3    18    19   ar
     4    19    20   ar
     5    20    21   ar
     6    21    22    1
     7    21    23   ar
     8    23    25    1
     9    25    26    1
    10    25    27    1
    11    25    28    1
    12    23    24   ar
    13    11    12   am
    14    12    13    1
    15    13    14    1
    16    14    15    1
    17    15     1    1
    18     1     2   ar
    19     2     3   ar
    20     3     4    2
    21     3     5   ar
    22     5     6   ar
    23     6     7    2
    24     6     8   ar
    25     8    29    1
    26    29    30    1
    27    30    31   ar
    28    31    32   ar
    29    32    33   ar
    30    33    36    1
    31    36    37    1
    32    37    38    2
    33    37    39    2
    34    37    40    1
    35    40    41   ar
    36    41    42   ar
    37    42    43   ar
    38    43    44   ar
    39    44    45   ar
    40    45    46   ar
    41    46    47   ar
    42    47    48   ar
    43    48    49   ar
    44    33    34   ar
    45    34    35   ar
    46    15    16    1
    47    16    17    1
    48    24    18   ar
    49    17    12    1
    50     8     1   ar
    51    35    30   ar
    52    49    40   ar
    53    49    44   ar
    54     5     9    1
