@<TRIPOS>MOLECULE
*****
 45 50 0 0 0
SMALL
GASTEIGER

@<TRIPOS>ATOM
      1 O         138.0721  143.9660  162.8889 O.2     1  UNL1       -0.2616
      2 C         139.0380  143.0921  162.1450 C.2     1  UNL1        0.2903
      3 S         139.4707  143.2701  160.7198 S.3     1  UNL1       -0.0248
      4 C         140.4409  142.1749  160.3896 C.2     1  UNL1        0.0879
      5 C         141.1242  141.9704  159.0700 C.2     1  UNL1        0.0112
      6 C         140.6079  141.3200  161.6108 C.2     1  UNL1        0.2653
      7 O         141.4875  140.1105  161.7268 O.2     1  UNL1       -0.2686
      8 N         139.7409  141.8868  162.6957 N.am    1  UNL1       -0.1954
      9 C         140.8571  142.9120  157.9333 C.ar    1  UNL1        0.0008
     10 C         141.7754  144.0726  157.6892 C.ar    1  UNL1        0.0031
     11 C         141.5083  145.0141  156.5525 C.ar    1  UNL1        0.0375
     12 C         140.3228  144.7951  155.6600 C.ar    1  UNL1        0.1453
     13 C         139.4044  143.6346  155.9041 C.ar    1  UNL1        0.0375
     14 C         139.6715  142.6930  157.0408 C.ar    1  UNL1        0.0031
     15 O         140.0557  145.7368  154.5233 O.3     1  UNL1       -0.4535
     16 C         139.7170  147.1713  154.8014 C.ar    1  UNL1        0.1457
     17 C         138.9011  147.5289  156.0082 C.ar    1  UNL1        0.0438
     18 C         138.5624  148.9635  156.2864 C.ar    1  UNL1        0.0784
     19 C         139.0397  150.0404  155.3578 C.ar    1  UNL1        0.2903
     20 C         139.8557  149.6828  154.1510 C.ar    1  UNL1        0.0784
     21 C         140.1943  148.2483  153.8728 C.ar    1  UNL1        0.0438
     22 N         138.7011  151.4749  155.6360 N.pl3   1  UNL1        0.0809
     23 O         138.2003  152.3555  154.5296 O.2     1  UNL1        0.0415
     24 O         138.8632  152.0290  157.0204 O.co2   1  UNL1       -0.5760
     25 C         139.6013  141.3438  164.0869 C.ar    1  UNL1        0.0619
     26 C         139.1260  139.9370  164.2987 C.ar    1  UNL1        0.0185
     27 C         138.9864  139.3939  165.6899 C.ar    1  UNL1        0.0382
     28 C         139.3221  140.2577  166.8694 C.ar    1  UNL1        0.1386
     29 C         139.7974  141.6646  166.6576 C.ar    1  UNL1        0.0382
     30 C         139.9370  142.2077  165.2663 C.ar    1  UNL1        0.0185
     31 O         139.1825  139.7147  168.2607 O.3     1  UNL1       -0.4755
     32 C         139.3354  140.6277  169.4410 C.3     1  UNL1        0.2054
     33 C         140.1123  140.1768  170.6422 C.3     1  UNL1        0.0488
     34 C         141.4961  140.7039  170.8815 C.3     1  UNL1        0.0212
     35 C         142.6518  140.1617  170.0939 C.3     1  UNL1        0.0723
     36 N         142.8623  140.5978  168.6742 N.3     1  UNL1       -0.2703
     37 C         142.7966  139.5922  167.5632 C.3     1  UNL1        0.0897
     38 C         143.0071  140.0282  166.1435 C.3     1  UNL1        0.0897
     39 N         143.2833  141.4700  165.8348 N.3     1  UNL1       -0.2703
     40 C         143.3490  142.4756  166.9458 C.3     1  UNL1        0.0897
     41 C         143.1385  142.0395  168.3656 C.3     1  UNL1        0.0897
     42 C         143.4938  141.9060  164.4152 C.3     1  UNL1        0.0721
     43 C         143.2726  143.3388  164.0300 C.3     1  UNL1        0.0160
     44 C         143.6600  144.7847  164.1272 C.3     1  UNL1        0.0014
     45 C         142.5024  144.3745  163.2660 C.3     1  UNL1        0.0014
@<TRIPOS>UNITY_ATOM_ATTR
22 1
charge 1
24 1
charge -1
@<TRIPOS>BOND
     1     1     2    2
     2     2     3    1
     3     3     4    1
     4     4     5    2
     5     5     9    1
     6     9    10   ar
     7    10    11   ar
     8    11    12   ar
     9    12    15    1
    10    15    16    1
    11    16    17   ar
    12    17    18   ar
    13    18    19   ar
    14    19    22    1
    15    22    23    2
    16    22    24    1
    17    19    20   ar
    18    20    21   ar
    19    12    13   ar
    20    13    14   ar
    21     4     6    1
    22     6     7    2
    23     6     8   am
    24     8    25    1
    25    25    26   ar
    26    26    27   ar
    27    27    28   ar
    28    28    31    1
    29    31    32    1
    30    32    33    1
    31    33    34    1
    32    34    35    1
    33    35    36    1
    34    36    37    1
    35    37    38    1
    36    38    39    1
    37    39    42    1
    38    42    43    1
    39    43    44    1
    40    44    45    1
    41    39    40    1
    42    40    41    1
    43    28    29   ar
    44    29    30   ar
    45     8     2   am
    46    30    25   ar
    47    14     9   ar
    48    41    36    1
    49    21    16   ar
    50    45    43    1
@<TRIPOS>MOLECULE
*****
 45 50 0 0 0
SMALL
GASTEIGER

@<TRIPOS>ATOM
      1 O         141.1857  136.7077  163.4152 O.2     1  UNL1       -0.2616
      2 C         140.6182  137.8611  162.6421 C.2     1  UNL1        0.2903
      3 S         140.7627  138.0899  161.1667 S.3     1  UNL1       -0.0248
      4 C         140.0404  139.3584  160.8214 C.2     1  UNL1        0.0879
      5 C         139.9286  139.9651  159.4541 C.2     1  UNL1        0.0112
      6 C         139.4495  139.9135  162.0834 C.2     1  UNL1        0.2653
      7 O         138.6431  141.1730  162.1997 O.2     1  UNL1       -0.2686
      8 N         139.8066  138.9882  163.2086 N.am    1  UNL1       -0.1954
      9 C         140.5756  139.2924  158.2798 C.ar    1  UNL1        0.0008
     10 C         139.8254  138.2491  157.5061 C.ar    1  UNL1        0.0031
     11 C         140.4724  137.5765  156.3319 C.ar    1  UNL1        0.0375
     12 C         141.8696  137.9470  155.9314 C.ar    1  UNL1        0.1453
     13 C         142.6199  138.9903  156.7052 C.ar    1  UNL1        0.0375
     14 C         141.9728  139.6630  157.8794 C.ar    1  UNL1        0.0031
     15 O         142.5166  137.2743  154.7571 O.3     1  UNL1       -0.4535
     16 C         142.7171  135.7878  154.7612 C.ar    1  UNL1        0.1457
     17 C         142.0890  134.9434  153.6923 C.ar    1  UNL1        0.0438
     18 C         142.2895  133.4568  153.6964 C.ar    1  UNL1        0.0784
     19 C         143.1182  132.8147  154.7693 C.ar    1  UNL1        0.2903
     20 C         143.7463  133.6592  155.8381 C.ar    1  UNL1        0.0784
     21 C         143.5458  135.1457  155.8341 C.ar    1  UNL1        0.0438
     22 N         143.3187  131.3282  154.7733 N.pl3   1  UNL1        0.0809
     23 O         143.9457  130.6528  153.5897 O.2     1  UNL1        0.0415
     24 O         142.8922  130.5171  155.9608 O.co2   1  UNL1       -0.5760
     25 C         139.4200  139.1598  164.6478 C.ar    1  UNL1        0.0619
     26 C         139.8884  140.3625  165.4119 C.ar    1  UNL1        0.0185
     27 C         139.5017  140.5341  166.8510 C.ar    1  UNL1        0.0382
     28 C         138.6467  139.5030  167.5259 C.ar    1  UNL1        0.1386
     29 C         138.1783  138.3002  166.7617 C.ar    1  UNL1        0.0382
     30 C         138.5649  138.1286  165.3226 C.ar    1  UNL1        0.0185
     31 O         138.2600  139.6746  168.9651 O.3     1  UNL1       -0.4755
     32 C         139.2540  140.2161  169.9493 C.3     1  UNL1        0.2054
     33 C         139.4805  141.6955  170.0495 C.3     1  UNL1        0.0488
     34 C         140.8478  142.2252  170.3657 C.3     1  UNL1        0.0212
     35 C         142.0531  141.3539  170.1711 C.3     1  UNL1        0.0723
     36 N         142.4765  140.9572  168.7879 N.3     1  UNL1       -0.2703
     37 C         142.5878  139.5061  168.4247 C.3     1  UNL1        0.0897
     38 C         143.0112  139.1095  167.0414 C.3     1  UNL1        0.0897
     39 N         143.3233  140.1641  166.0213 N.3     1  UNL1       -0.2703
     40 C         143.2120  141.6152  166.3844 C.3     1  UNL1        0.0897
     41 C         142.7886  142.0118  167.7677 C.3     1  UNL1        0.0897
     42 C         143.7467  139.7675  164.6381 C.3     1  UNL1        0.0721
     43 C         144.6357  140.6723  163.8374 C.3     1  UNL1        0.0160
     44 C         144.9629  141.3616  162.5460 C.3     1  UNL1        0.0014
     45 C         145.8482  141.5502  163.7421 C.3     1  UNL1        0.0014
@<TRIPOS>UNITY_ATOM_ATTR
22 1
charge 1
24 1
charge -1
@<TRIPOS>BOND
     1     1     2    2
     2     2     3    1
     3     3     4    1
     4     4     5    2
     5     5     9    1
     6     9    10   ar
     7    10    11   ar
     8    11    12   ar
     9    12    15    1
    10    15    16    1
    11    16    17   ar
    12    17    18   ar
    13    18    19   ar
    14    19    22    1
    15    22    23    2
    16    22    24    1
    17    19    20   ar
    18    20    21   ar
    19    12    13   ar
    20    13    14   ar
    21     4     6    1
    22     6     7    2
    23     6     8   am
    24     8    25    1
    25    25    26   ar
    26    26    27   ar
    27    27    28   ar
    28    28    31    1
    29    31    32    1
    30    32    33    1
    31    33    34    1
    32    34    35    1
    33    35    36    1
    34    36    37    1
    35    37    38    1
    36    38    39    1
    37    39    42    1
    38    42    43    1
    39    43    44    1
    40    44    45    1
    41    39    40    1
    42    40    41    1
    43    28    29   ar
    44    29    30   ar
    45     8     2   am
    46    30    25   ar
    47    14     9   ar
    48    41    36    1
    49    21    16   ar
    50    45    43    1
@<TRIPOS>MOLECULE
*****
 45 50 0 0 0
SMALL
GASTEIGER

@<TRIPOS>ATOM
      1 O         143.6875  139.0574  160.0173 O.2     1  UNL1       -0.2616
      2 C         142.1926  139.0004  159.9077 C.2     1  UNL1        0.2903
      3 S         141.2250  138.9723  161.0535 S.3     1  UNL1       -0.0248
      4 C         139.8372  138.9159  160.4870 C.2     1  UNL1        0.0879
      5 C         138.5632  138.8737  161.2777 C.2     1  UNL1        0.0112
      6 C         139.9472  138.9092  158.9911 C.2     1  UNL1        0.2653
      7 O         138.8024  138.8590  158.0231 O.2     1  UNL1       -0.2686
      8 N         141.4029  138.9614  158.6330 N.am    1  UNL1       -0.1954
      9 C         138.6102  138.8864  162.7769 C.ar    1  UNL1        0.0008
     10 C         138.1522  140.0992  163.5314 C.ar    1  UNL1        0.0031
     11 C         138.1992  140.1119  165.0306 C.ar    1  UNL1        0.0375
     12 C         138.7042  138.9117  165.7753 C.ar    1  UNL1        0.1453
     13 C         139.1621  137.6988  165.0208 C.ar    1  UNL1        0.0375
     14 C         139.1151  137.6862  163.5216 C.ar    1  UNL1        0.0031
     15 O         138.7511  138.9243  167.2745 O.3     1  UNL1       -0.4535
     16 C         139.3066  140.1155  167.9975 C.ar    1  UNL1        0.1457
     17 C         140.1460  141.1161  167.2599 C.ar    1  UNL1        0.0438
     18 C         140.7015  142.3073  167.9829 C.ar    1  UNL1        0.0784
     19 C         140.4176  142.4977  169.4434 C.ar    1  UNL1        0.2903
     20 C         139.5781  141.4971  170.1809 C.ar    1  UNL1        0.0784
     21 C         139.0227  140.3059  169.4580 C.ar    1  UNL1        0.0438
     22 N         140.9730  143.6888  170.1663 N.pl3   1  UNL1        0.0809
     23 O         140.1302  144.9164  170.3476 O.2     1  UNL1        0.0415
     24 O         142.3714  143.6525  170.7079 O.co2   1  UNL1       -0.5760
     25 C         141.9693  138.9726  157.2441 C.ar    1  UNL1        0.0619
     26 C         141.5541  140.0379  156.2734 C.ar    1  UNL1        0.0185
     27 C         142.1205  140.0492  154.8845 C.ar    1  UNL1        0.0382
     28 C         143.1023  138.9949  154.4664 C.ar    1  UNL1        0.1386
     29 C         143.5175  137.9295  155.4372 C.ar    1  UNL1        0.0382
     30 C         142.9511  137.9183  156.8261 C.ar    1  UNL1        0.0185
     31 O         143.6688  139.0061  153.0775 O.3     1  UNL1       -0.4755
     32 C         144.4928  140.1703  152.6130 C.3     1  UNL1        0.2054
     33 C         145.8553  140.4044  153.1951 C.3     1  UNL1        0.0488
     34 C         146.0653  141.5037  154.1938 C.3     1  UNL1        0.0212
     35 C         144.9556  142.4677  154.4925 C.3     1  UNL1        0.0723
     36 N         144.4243  142.5902  155.8899 N.3     1  UNL1       -0.2703
     37 C         145.1499  141.9360  157.0282 C.3     1  UNL1        0.0897
     38 C         144.6186  142.0585  158.4256 C.3     1  UNL1        0.0897
     39 N         143.3616  142.8351  158.6847 N.3     1  UNL1       -0.2703
     40 C         142.6361  143.4893  157.5465 C.3     1  UNL1        0.0897
     41 C         143.1674  143.3669  156.1491 C.3     1  UNL1        0.0897
     42 C         142.8304  142.9576  160.0820 C.3     1  UNL1        0.0721
     43 C         143.7792  143.0251  161.2420 C.3     1  UNL1        0.0160
     44 C         144.8042  142.3725  162.1214 C.3     1  UNL1        0.0014
     45 C         144.3975  143.7945  162.3713 C.3     1  UNL1        0.0014
@<TRIPOS>UNITY_ATOM_ATTR
22 1
charge 1
24 1
charge -1
@<TRIPOS>BOND
     1     1     2    2
     2     2     3    1
     3     3     4    1
     4     4     5    2
     5     5     9    1
     6     9    10   ar
     7    10    11   ar
     8    11    12   ar
     9    12    15    1
    10    15    16    1
    11    16    17   ar
    12    17    18   ar
    13    18    19   ar
    14    19    22    1
    15    22    23    2
    16    22    24    1
    17    19    20   ar
    18    20    21   ar
    19    12    13   ar
    20    13    14   ar
    21     4     6    1
    22     6     7    2
    23     6     8   am
    24     8    25    1
    25    25    26   ar
    26    26    27   ar
    27    27    28   ar
    28    28    31    1
    29    31    32    1
    30    32    33    1
    31    33    34    1
    32    34    35    1
    33    35    36    1
    34    36    37    1
    35    37    38    1
    36    38    39    1
    37    39    42    1
    38    42    43    1
    39    43    44    1
    40    44    45    1
    41    39    40    1
    42    40    41    1
    43    28    29   ar
    44    29    30   ar
    45     8     2   am
    46    30    25   ar
    47    14     9   ar
    48    41    36    1
    49    21    16   ar
    50    45    43    1
@<TRIPOS>MOLECULE
*****
 45 50 0 0 0
SMALL
GASTEIGER

@<TRIPOS>ATOM
      1 O         143.6798  139.2072  160.1011 O.2     1  UNL1       -0.2616
      2 C         142.1914  139.0684  159.9769 C.2     1  UNL1        0.2903
      3 S         141.2140  139.0052  161.1130 S.3     1  UNL1       -0.0248
      4 C         139.8376  138.8662  160.5331 C.2     1  UNL1        0.0879
      5 C         138.5589  138.7673  161.3111 C.2     1  UNL1        0.0112
      6 C         139.9644  138.8436  159.0387 C.2     1  UNL1        0.2653
      7 O         138.8347  138.7181  158.0598 O.2     1  UNL1       -0.2686
      8 N         141.4191  138.9686  158.6949 N.am    1  UNL1       -0.1954
      9 C         138.5885  138.8043  162.8104 C.ar    1  UNL1        0.0008
     10 C         138.1059  140.0226  163.5402 C.ar    1  UNL1        0.0031
     11 C         138.1355  140.0596  165.0394 C.ar    1  UNL1        0.0375
     12 C         138.6476  138.8781  165.8088 C.ar    1  UNL1        0.1453
     13 C         139.1301  137.6598  165.0790 C.ar    1  UNL1        0.0375
     14 C         139.1005  137.6228  163.5798 C.ar    1  UNL1        0.0031
     15 O         138.6771  138.9151  167.3081 O.3     1  UNL1       -0.4535
     16 C         139.2618  140.1002  168.0178 C.ar    1  UNL1        0.1457
     17 C         138.9883  140.3104  169.4776 C.ar    1  UNL1        0.0438
     18 C         139.5730  141.4956  170.1872 C.ar    1  UNL1        0.0784
     19 C         140.4312  142.4706  169.4370 C.ar    1  UNL1        0.2903
     20 C         140.7048  142.2604  167.9772 C.ar    1  UNL1        0.0784
     21 C         140.1201  141.0753  167.2676 C.ar    1  UNL1        0.0438
     22 N         141.0159  143.6557  170.1466 N.pl3   1  UNL1        0.0809
     23 O         140.2017  144.9038  170.3185 O.2     1  UNL1        0.0415
     24 O         142.4148  143.5928  170.6843 O.co2   1  UNL1       -0.5760
     25 C         141.9996  138.9900  157.3119 C.ar    1  UNL1        0.0619
     26 C         143.0209  137.9672  156.9114 C.ar    1  UNL1        0.0185
     27 C         143.6014  137.9886  155.5284 C.ar    1  UNL1        0.0382
     28 C         143.1604  139.0328  154.5460 C.ar    1  UNL1        0.1386
     29 C         142.1390  140.0556  154.9466 C.ar    1  UNL1        0.0382
     30 C         141.5585  140.0343  156.3296 C.ar    1  UNL1        0.0185
     31 O         143.7409  139.0542  153.1630 O.3     1  UNL1       -0.4755
     32 C         145.0129  139.8027  152.8950 C.3     1  UNL1        0.2054
     33 C         145.0203  141.3024  152.9210 C.3     1  UNL1        0.0488
     34 C         145.3145  142.0289  154.1999 C.3     1  UNL1        0.0212
     35 C         144.4204  143.1456  154.6509 C.3     1  UNL1        0.0723
     36 N         143.7157  143.0552  155.9720 N.3     1  UNL1       -0.2703
     37 C         144.3531  142.3197  157.1133 C.3     1  UNL1        0.0897
     38 C         143.6484  142.2293  158.4344 C.3     1  UNL1        0.0897
     39 N         142.3062  142.8745  158.6142 N.3     1  UNL1       -0.2703
     40 C         141.6687  143.6100  157.4729 C.3     1  UNL1        0.0897
     41 C         142.3734  143.7004  156.1518 C.3     1  UNL1        0.0897
     42 C         141.6015  142.7841  159.9352 C.3     1  UNL1        0.0721
     43 C         140.1166  142.5762  159.9805 C.3     1  UNL1        0.0160
     44 C         138.8212  142.3025  159.2755 C.3     1  UNL1        0.0014
     45 C         138.8403  142.4898  160.7636 C.3     1  UNL1        0.0014
@<TRIPOS>UNITY_ATOM_ATTR
22 1
charge 1
24 1
charge -1
@<TRIPOS>BOND
     1     1     2    2
     2     2     3    1
     3     3     4    1
     4     4     5    2
     5     5     9    1
     6     9    10   ar
     7    10    11   ar
     8    11    12   ar
     9    12    15    1
    10    15    16    1
    11    16    17   ar
    12    17    18   ar
    13    18    19   ar
    14    19    22    1
    15    22    23    2
    16    22    24    1
    17    19    20   ar
    18    20    21   ar
    19    12    13   ar
    20    13    14   ar
    21     4     6    1
    22     6     7    2
    23     6     8   am
    24     8    25    1
    25    25    26   ar
    26    26    27   ar
    27    27    28   ar
    28    28    31    1
    29    31    32    1
    30    32    33    1
    31    33    34    1
    32    34    35    1
    33    35    36    1
    34    36    37    1
    35    37    38    1
    36    38    39    1
    37    39    42    1
    38    42    43    1
    39    43    44    1
    40    44    45    1
    41    39    40    1
    42    40    41    1
    43    28    29   ar
    44    29    30   ar
    45     8     2   am
    46    30    25   ar
    47    14     9   ar
    48    41    36    1
    49    21    16   ar
    50    45    43    1
@<TRIPOS>MOLECULE
*****
 45 50 0 0 0
SMALL
GASTEIGER

@<TRIPOS>ATOM
      1 O         139.3262  143.6627  163.3131 O.2     1  UNL1       -0.2616
      2 C         140.4441  143.2965  162.3825 C.2     1  UNL1        0.2903
      3 S         140.5451  143.6738  160.9342 S.3     1  UNL1       -0.0248
      4 C         141.8208  143.0992  160.3933 C.2     1  UNL1        0.0879
      5 C         142.3212  143.2335  158.9856 C.2     1  UNL1        0.0112
      6 C         142.5082  142.3668  161.5074 C.2     1  UNL1        0.2653
      7 O         143.8167  141.6401  161.4093 O.2     1  UNL1       -0.2686
      8 N         141.6574  142.4888  162.7367 N.am    1  UNL1       -0.1954
      9 C         141.5206  144.0002  157.9750 C.ar    1  UNL1        0.0008
     10 C         141.8929  145.4139  157.6394 C.ar    1  UNL1        0.0031
     11 C         141.0923  146.1805  156.6288 C.ar    1  UNL1        0.0375
     12 C         139.9194  145.5334  155.9538 C.ar    1  UNL1        0.1453
     13 C         139.5471  144.1196  156.2894 C.ar    1  UNL1        0.0375
     14 C         140.3477  143.3530  157.3000 C.ar    1  UNL1        0.0031
     15 O         139.1189  146.3001  154.9432 O.3     1  UNL1       -0.4535
     16 C         139.2065  147.7967  154.8959 C.ar    1  UNL1        0.1457
     17 C         140.0163  148.4672  153.8260 C.ar    1  UNL1        0.0438
     18 C         140.1040  149.9639  153.7788 C.ar    1  UNL1        0.0784
     19 C         139.3819  150.7901  154.8014 C.ar    1  UNL1        0.2903
     20 C         138.5721  150.1197  155.8713 C.ar    1  UNL1        0.0784
     21 C         138.4844  148.6230  155.9186 C.ar    1  UNL1        0.0438
     22 N         139.4696  152.2868  154.7542 N.pl3   1  UNL1        0.0809
     23 O         138.2914  153.1204  155.1628 O.2     1  UNL1        0.0415
     24 O         140.7355  152.9499  154.2983 O.co2   1  UNL1       -0.5760
     25 C         141.9658  141.9054  164.0838 C.ar    1  UNL1        0.0619
     26 C         141.9723  140.4175  164.2730 C.ar    1  UNL1        0.0185
     27 C         142.2806  139.8341  165.6200 C.ar    1  UNL1        0.0382
     28 C         142.5825  140.7387  166.7778 C.ar    1  UNL1        0.1386
     29 C         142.5759  142.2267  166.5886 C.ar    1  UNL1        0.0382
     30 C         142.2676  142.8101  165.2415 C.ar    1  UNL1        0.0185
     31 O         142.8908  140.1553  168.1250 O.3     1  UNL1       -0.4755
     32 C         141.7798  139.6413  168.9918 C.3     1  UNL1        0.2054
     33 C         140.5238  140.4445  169.1560 C.3     1  UNL1        0.0488
     34 C         139.5469  140.5491  168.0225 C.3     1  UNL1        0.0212
     35 C         138.9878  139.3056  167.3970 C.3     1  UNL1        0.0723
     36 N         138.7814  139.2402  165.9127 N.3     1  UNL1       -0.2703
     37 C         138.3223  140.4568  165.1650 C.3     1  UNL1        0.0897
     38 C         138.1159  140.3914  163.6807 C.3     1  UNL1        0.0897
     39 N         138.3686  139.1093  162.9441 N.3     1  UNL1       -0.2703
     40 C         138.8276  137.8927  163.6918 C.3     1  UNL1        0.0897
     41 C         139.0341  137.9581  165.1761 C.3     1  UNL1        0.0897
     42 C         138.1621  139.0439  161.4599 C.3     1  UNL1        0.0721
     43 C         139.2464  139.5039  160.5309 C.3     1  UNL1        0.0160
     44 C         139.6758  140.2626  159.3103 C.3     1  UNL1        0.0014
     45 C         140.6946  139.5418  160.1424 C.3     1  UNL1        0.0014
@<TRIPOS>UNITY_ATOM_ATTR
22 1
charge 1
24 1
charge -1
@<TRIPOS>BOND
     1     1     2    2
     2     2     3    1
     3     3     4    1
     4     4     5    2
     5     5     9    1
     6     9    10   ar
     7    10    11   ar
     8    11    12   ar
     9    12    15    1
    10    15    16    1
    11    16    17   ar
    12    17    18   ar
    13    18    19   ar
    14    19    22    1
    15    22    23    2
    16    22    24    1
    17    19    20   ar
    18    20    21   ar
    19    12    13   ar
    20    13    14   ar
    21     4     6    1
    22     6     7    2
    23     6     8   am
    24     8    25    1
    25    25    26   ar
    26    26    27   ar
    27    27    28   ar
    28    28    31    1
    29    31    32    1
    30    32    33    1
    31    33    34    1
    32    34    35    1
    33    35    36    1
    34    36    37    1
    35    37    38    1
    36    38    39    1
    37    39    42    1
    38    42    43    1
    39    43    44    1
    40    44    45    1
    41    39    40    1
    42    40    41    1
    43    28    29   ar
    44    29    30   ar
    45     8     2   am
    46    30    25   ar
    47    14     9   ar
    48    41    36    1
    49    21    16   ar
    50    45    43    1
@<TRIPOS>MOLECULE
*****
 45 50 0 0 0
SMALL
GASTEIGER

@<TRIPOS>ATOM
      1 O         143.1788  143.4620  160.0611 O.2     1  UNL1       -0.2616
      2 C         143.1925  141.9629  160.0115 C.2     1  UNL1        0.2903
      3 S         143.2231  141.0418  161.1950 S.3     1  UNL1       -0.0248
      4 C         143.2275  139.6313  160.6847 C.2     1  UNL1        0.0879
      5 C         143.2550  138.3895  161.5256 C.2     1  UNL1        0.0112
      6 C         143.1997  139.6807  159.1857 C.2     1  UNL1        0.2653
      7 O         143.1945  138.4969  158.2645 O.2     1  UNL1       -0.2686
      8 N         143.1781  141.1217  158.7697 N.am    1  UNL1       -0.1954
      9 C         143.2812  138.4972  163.0215 C.ar    1  UNL1        0.0008
     10 C         142.0972  138.0499  163.8265 C.ar    1  UNL1        0.0031
     11 C         142.1235  138.1576  165.3224 C.ar    1  UNL1        0.0375
     12 C         143.3337  138.7126  166.0133 C.ar    1  UNL1        0.1453
     13 C         144.5177  139.1599  165.2083 C.ar    1  UNL1        0.0375
     14 C         144.4914  139.0522  163.7124 C.ar    1  UNL1        0.0031
     15 O         143.3600  138.8203  167.5092 O.3     1  UNL1       -0.4535
     16 C         142.5646  139.8892  168.1983 C.ar    1  UNL1        0.1457
     17 C         141.8352  139.5781  169.4716 C.ar    1  UNL1        0.0438
     18 C         141.0399  140.6471  170.1606 C.ar    1  UNL1        0.0784
     19 C         140.9739  142.0271  169.5764 C.ar    1  UNL1        0.2903
     20 C         141.7033  142.3381  168.3031 C.ar    1  UNL1        0.0784
     21 C         142.4986  141.2692  167.6140 C.ar    1  UNL1        0.0438
     22 N         140.1786  143.0960  170.2654 N.pl3   1  UNL1        0.0809
     23 O         139.5532  142.8221  171.6011 O.2     1  UNL1        0.0415
     24 O         140.0086  144.4387  169.6189 O.co2   1  UNL1       -0.5760
     25 C         143.1474  141.6318  157.3594 C.ar    1  UNL1        0.0619
     26 C         141.9805  141.3141  156.4722 C.ar    1  UNL1        0.0185
     27 C         141.9498  141.8243  155.0620 C.ar    1  UNL1        0.0382
     28 C         143.0860  142.6521  154.5390 C.ar    1  UNL1        0.1386
     29 C         144.2530  142.9698  155.4263 C.ar    1  UNL1        0.0382
     30 C         144.2837  142.4597  156.8365 C.ar    1  UNL1        0.0185
     31 O         143.0554  143.1623  153.1287 O.3     1  UNL1       -0.4755
     32 C         142.5576  144.5482  152.8431 C.3     1  UNL1        0.2054
     33 C         141.1857  144.9590  153.2892 C.3     1  UNL1        0.0488
     34 C         140.9598  145.4082  154.7024 C.3     1  UNL1        0.0212
     35 C         139.7239  144.9804  155.4370 C.3     1  UNL1        0.0723
     36 N         139.7716  144.7587  156.9197 N.3     1  UNL1       -0.2703
     37 C         139.2963  143.4596  157.4996 C.3     1  UNL1        0.0897
     38 C         139.3440  143.2379  158.9823 C.3     1  UNL1        0.0897
     39 N         139.8671  144.3155  159.8853 N.3     1  UNL1       -0.2703
     40 C         140.3425  145.6147  159.3055 C.3     1  UNL1        0.0897
     41 C         140.2948  145.8363  157.8227 C.3     1  UNL1        0.0897
     42 C         139.9148  144.0939  161.3680 C.3     1  UNL1        0.0721
     43 C         138.7510  143.4580  162.0691 C.3     1  UNL1        0.0160
     44 C         137.7147  143.4856  163.1532 C.3     1  UNL1        0.0014
     45 C         137.7718  142.3293  162.1994 C.3     1  UNL1        0.0014
@<TRIPOS>UNITY_ATOM_ATTR
22 1
charge 1
24 1
charge -1
@<TRIPOS>BOND
     1     1     2    2
     2     2     3    1
     3     3     4    1
     4     4     5    2
     5     5     9    1
     6     9    10   ar
     7    10    11   ar
     8    11    12   ar
     9    12    15    1
    10    15    16    1
    11    16    17   ar
    12    17    18   ar
    13    18    19   ar
    14    19    22    1
    15    22    23    2
    16    22    24    1
    17    19    20   ar
    18    20    21   ar
    19    12    13   ar
    20    13    14   ar
    21     4     6    1
    22     6     7    2
    23     6     8   am
    24     8    25    1
    25    25    26   ar
    26    26    27   ar
    27    27    28   ar
    28    28    31    1
    29    31    32    1
    30    32    33    1
    31    33    34    1
    32    34    35    1
    33    35    36    1
    34    36    37    1
    35    37    38    1
    36    38    39    1
    37    39    42    1
    38    42    43    1
    39    43    44    1
    40    44    45    1
    41    39    40    1
    42    40    41    1
    43    28    29   ar
    44    29    30   ar
    45     8     2   am
    46    30    25   ar
    47    14     9   ar
    48    41    36    1
    49    21    16   ar
    50    45    43    1
@<TRIPOS>MOLECULE
*****
 45 50 0 0 0
SMALL
GASTEIGER

@<TRIPOS>ATOM
      1 O         138.3769  141.9356  160.4408 O.2     1  UNL1       -0.2616
      2 C         139.2455  140.7424  160.1732 C.2     1  UNL1        0.2903
      3 S         140.1498  140.0702  161.1634 S.3     1  UNL1       -0.0248
      4 C         140.8256  138.9242  160.4705 C.2     1  UNL1        0.0879
      5 C         141.8144  137.9801  161.0878 C.2     1  UNL1        0.0112
      6 C         140.3390  138.8882  159.0521 C.2     1  UNL1        0.2653
      7 O         140.7557  137.9016  158.0019 O.2     1  UNL1       -0.2686
      8 N         139.3624  140.0118  158.8683 N.am    1  UNL1       -0.1954
      9 C         142.2075  138.1408  162.5264 C.ar    1  UNL1        0.0008
     10 C         143.4293  138.9332  162.8861 C.ar    1  UNL1        0.0031
     11 C         143.8223  139.0938  164.3247 C.ar    1  UNL1        0.0375
     12 C         142.9936  138.4621  165.4037 C.ar    1  UNL1        0.1453
     13 C         141.7719  137.6697  165.0440 C.ar    1  UNL1        0.0375
     14 C         141.3788  137.5091  163.6054 C.ar    1  UNL1        0.0031
     15 O         143.3868  138.6227  166.8423 O.3     1  UNL1       -0.4535
     16 C         142.6674  139.6121  167.7104 C.ar    1  UNL1        0.1457
     17 C         142.5324  139.3592  169.1828 C.ar    1  UNL1        0.0438
     18 C         141.8130  140.3486  170.0509 C.ar    1  UNL1        0.0784
     19 C         141.2285  141.5908  169.4466 C.ar    1  UNL1        0.2903
     20 C         141.3634  141.8437  167.9743 C.ar    1  UNL1        0.0784
     21 C         142.0828  140.8544  167.1062 C.ar    1  UNL1        0.0438
     22 N         140.5090  142.5801  170.3147 N.pl3   1  UNL1        0.0809
     23 O         140.0089  143.8674  169.7291 O.2     1  UNL1        0.0415
     24 O         140.2897  142.2822  171.7684 O.co2   1  UNL1       -0.5760
     25 C         138.6312  140.3462  157.6020 C.ar    1  UNL1        0.0619
     26 C         139.2935  140.1290  156.2739 C.ar    1  UNL1        0.0185
     27 C         138.5623  140.4634  155.0076 C.ar    1  UNL1        0.0382
     28 C         137.1688  141.0149  155.0695 C.ar    1  UNL1        0.1386
     29 C         136.5065  141.2321  156.3977 C.ar    1  UNL1        0.0382
     30 C         137.2377  140.8977  157.6640 C.ar    1  UNL1        0.0185
     31 O         136.4375  141.3493  153.8032 O.3     1  UNL1       -0.4755
     32 C         136.6338  142.6876  153.1548 C.3     1  UNL1        0.2054
     33 C         137.7310  143.5954  153.6258 C.3     1  UNL1        0.0488
     34 C         137.4233  144.7117  154.5793 C.3     1  UNL1        0.0212
     35 C         138.5189  145.6254  155.0430 C.3     1  UNL1        0.0723
     36 N         139.2870  145.3026  156.2903 N.3     1  UNL1       -0.2703
     37 C         139.3845  143.8830  156.7649 C.3     1  UNL1        0.0897
     38 C         140.1527  143.5602  158.0122 C.3     1  UNL1        0.0897
     39 N         140.8234  144.6571  158.7850 N.3     1  UNL1       -0.2703
     40 C         140.7259  146.0767  158.3104 C.3     1  UNL1        0.0897
     41 C         139.9577  146.3995  157.0631 C.3     1  UNL1        0.0897
     42 C         141.5915  144.3343  160.0322 C.3     1  UNL1        0.0721
     43 C         141.1784  144.9338  161.3437 C.3     1  UNL1        0.0160
     44 C         140.2726  145.8310  162.1340 C.3     1  UNL1        0.0014
     45 C         141.3686  145.0751  162.8248 C.3     1  UNL1        0.0014
@<TRIPOS>UNITY_ATOM_ATTR
22 1
charge 1
24 1
charge -1
@<TRIPOS>BOND
     1     1     2    2
     2     2     3    1
     3     3     4    1
     4     4     5    2
     5     5     9    1
     6     9    10   ar
     7    10    11   ar
     8    11    12   ar
     9    12    15    1
    10    15    16    1
    11    16    17   ar
    12    17    18   ar
    13    18    19   ar
    14    19    22    1
    15    22    23    2
    16    22    24    1
    17    19    20   ar
    18    20    21   ar
    19    12    13   ar
    20    13    14   ar
    21     4     6    1
    22     6     7    2
    23     6     8   am
    24     8    25    1
    25    25    26   ar
    26    26    27   ar
    27    27    28   ar
    28    28    31    1
    29    31    32    1
    30    32    33    1
    31    33    34    1
    32    34    35    1
    33    35    36    1
    34    36    37    1
    35    37    38    1
    36    38    39    1
    37    39    42    1
    38    42    43    1
    39    43    44    1
    40    44    45    1
    41    39    40    1
    42    40    41    1
    43    28    29   ar
    44    29    30   ar
    45     8     2   am
    46    30    25   ar
    47    14     9   ar
    48    41    36    1
    49    21    16   ar
    50    45    43    1
@<TRIPOS>MOLECULE
*****
 45 50 0 0 0
SMALL
GASTEIGER

@<TRIPOS>ATOM
      1 O         138.0472  139.4739  160.4213 O.2     1  UNL1       -0.2616
      2 C         139.4977  139.1198  160.2780 C.2     1  UNL1        0.2903
      3 S         140.4871  138.9846  161.3974 S.3     1  UNL1       -0.0248
      4 C         141.8144  138.6199  160.8014 C.2     1  UNL1        0.0879
      5 C         143.0872  138.3864  161.5599 C.2     1  UNL1        0.0112
      6 C         141.6453  138.5296  159.3137 C.2     1  UNL1        0.2653
      7 O         142.7195  138.1900  158.3233 O.2     1  UNL1       -0.2686
      8 N         140.2136  138.8385  158.9902 N.am    1  UNL1       -0.1954
      9 C         143.1036  138.5133  163.0545 C.ar    1  UNL1        0.0008
     10 C         144.1628  139.3364  163.7257 C.ar    1  UNL1        0.0031
     11 C         144.1792  139.4632  165.2202 C.ar    1  UNL1        0.0375
     12 C         143.1364  138.7669  166.0435 C.ar    1  UNL1        0.1453
     13 C         142.0772  137.9439  165.3723 C.ar    1  UNL1        0.0375
     14 C         142.0608  137.8170  163.8778 C.ar    1  UNL1        0.0031
     15 O         143.1529  138.8938  167.5381 O.3     1  UNL1       -0.4535
     16 C         142.3702  139.9847  168.2069 C.ar    1  UNL1        0.1457
     17 C         143.0632  141.2355  168.6599 C.ar    1  UNL1        0.0438
     18 C         142.2805  142.3264  169.3287 C.ar    1  UNL1        0.0784
     19 C         140.8047  142.1665  169.5444 C.ar    1  UNL1        0.2903
     20 C         140.1117  140.9158  169.0914 C.ar    1  UNL1        0.0784
     21 C         140.8944  139.8249  168.4226 C.ar    1  UNL1        0.0438
     22 N         140.0220  143.2575  170.2132 N.pl3   1  UNL1        0.0809
     23 O         139.9911  144.6330  169.6155 O.2     1  UNL1        0.0415
     24 O         139.2702  142.9730  171.4796 O.co2   1  UNL1       -0.5760
     25 C         139.6046  138.8621  157.6196 C.ar    1  UNL1        0.0619
     26 C         139.0116  140.1314  157.0841 C.ar    1  UNL1        0.0185
     27 C         138.4026  140.1550  155.7135 C.ar    1  UNL1        0.0382
     28 C         138.3868  138.9091  154.8784 C.ar    1  UNL1        0.1386
     29 C         138.9799  137.6396  155.4139 C.ar    1  UNL1        0.0382
     30 C         139.5888  137.6161  156.7845 C.ar    1  UNL1        0.0185
     31 O         137.7778  138.9326  153.5077 O.3     1  UNL1       -0.4755
     32 C         136.8605  140.0521  153.1136 C.3     1  UNL1        0.2054
     33 C         135.4284  140.0405  153.5594 C.3     1  UNL1        0.0488
     34 C         134.9758  140.9624  154.6527 C.3     1  UNL1        0.0212
     35 C         134.5788  140.4049  155.9875 C.3     1  UNL1        0.0723
     36 N         133.1283  140.2210  156.3222 N.3     1  UNL1       -0.2703
     37 C         132.0935  141.0962  155.6794 C.3     1  UNL1        0.0897
     38 C         130.6429  140.9124  156.0141 C.3     1  UNL1        0.0897
     39 N         130.2271  139.8533  156.9916 N.3     1  UNL1       -0.2703
     40 C         131.2619  138.9781  157.6344 C.3     1  UNL1        0.0897
     41 C         132.7125  139.1619  157.2997 C.3     1  UNL1        0.0897
     42 C         128.7766  139.6694  157.3263 C.3     1  UNL1        0.0721
     43 C         128.3239  139.7238  158.7554 C.3     1  UNL1        0.0160
     44 C         127.5967  140.4290  159.8617 C.3     1  UNL1        0.0014
     45 C         128.2669  139.1130  160.1241 C.3     1  UNL1        0.0014
@<TRIPOS>UNITY_ATOM_ATTR
22 1
charge 1
24 1
charge -1
@<TRIPOS>BOND
     1     1     2    2
     2     2     3    1
     3     3     4    1
     4     4     5    2
     5     5     9    1
     6     9    10   ar
     7    10    11   ar
     8    11    12   ar
     9    12    15    1
    10    15    16    1
    11    16    17   ar
    12    17    18   ar
    13    18    19   ar
    14    19    22    1
    15    22    23    2
    16    22    24    1
    17    19    20   ar
    18    20    21   ar
    19    12    13   ar
    20    13    14   ar
    21     4     6    1
    22     6     7    2
    23     6     8   am
    24     8    25    1
    25    25    26   ar
    26    26    27   ar
    27    27    28   ar
    28    28    31    1
    29    31    32    1
    30    32    33    1
    31    33    34    1
    32    34    35    1
    33    35    36    1
    34    36    37    1
    35    37    38    1
    36    38    39    1
    37    39    42    1
    38    42    43    1
    39    43    44    1
    40    44    45    1
    41    39    40    1
    42    40    41    1
    43    28    29   ar
    44    29    30   ar
    45     8     2   am
    46    30    25   ar
    47    14     9   ar
    48    41    36    1
    49    21    16   ar
    50    45    43    1
@<TRIPOS>MOLECULE
*****
 45 50 0 0 0
SMALL
GASTEIGER

@<TRIPOS>ATOM
      1 O         143.2699  142.9056  159.8734 O.2     1  UNL1       -0.2616
      2 C         143.0130  141.4279  159.8494 C.2     1  UNL1        0.2903
      3 S         142.3211  140.6358  160.9189 S.3     1  UNL1       -0.0248
      4 C         142.2835  139.2012  160.4822 C.2     1  UNL1        0.0879
      5 C         141.6826  138.0613  161.2500 C.2     1  UNL1        0.0112
      6 C         142.9522  139.1068  159.1428 C.2     1  UNL1        0.2653
      7 O         143.1375  137.8558  158.3361 O.2     1  UNL1       -0.2686
      8 N         143.4031  140.4829  158.7517 N.am    1  UNL1       -0.1954
      9 C         141.0444  138.3098  162.5846 C.ar    1  UNL1        0.0008
     10 C         139.6065  138.7296  162.6618 C.ar    1  UNL1        0.0031
     11 C         138.9683  138.9781  163.9963 C.ar    1  UNL1        0.0375
     12 C         139.7681  138.8067  165.2537 C.ar    1  UNL1        0.1453
     13 C         141.2061  138.3868  165.1765 C.ar    1  UNL1        0.0375
     14 C         141.8442  138.1384  163.8420 C.ar    1  UNL1        0.0031
     15 O         139.1299  139.0551  166.5883 O.3     1  UNL1       -0.4535
     16 C         139.5830  140.2087  167.4332 C.ar    1  UNL1        0.1457
     17 C         140.2431  141.3937  166.7928 C.ar    1  UNL1        0.0438
     18 C         140.6962  142.5473  167.6378 C.ar    1  UNL1        0.0784
     19 C         140.4892  142.5159  169.1230 C.ar    1  UNL1        0.2903
     20 C         139.8291  141.3310  169.7634 C.ar    1  UNL1        0.0784
     21 C         139.3760  140.1774  168.9185 C.ar    1  UNL1        0.0438
     22 N         140.9423  143.6695  169.9679 N.pl3   1  UNL1        0.0809
     23 O         142.3101  143.6566  170.5836 O.2     1  UNL1        0.0415
     24 O         140.0276  144.8361  170.1972 O.co2   1  UNL1       -0.5760
     25 C         144.1184  140.8497  157.4853 C.ar    1  UNL1        0.0619
     26 C         145.3324  141.7291  157.5374 C.ar    1  UNL1        0.0185
     27 C         146.0477  142.0958  156.2710 C.ar    1  UNL1        0.0382
     28 C         145.5490  141.5831  154.9525 C.ar    1  UNL1        0.1386
     29 C         144.3350  140.7036  154.9005 C.ar    1  UNL1        0.0382
     30 C         143.6196  140.3369  156.1669 C.ar    1  UNL1        0.0185
     31 O         146.2644  141.9498  153.6860 O.3     1  UNL1       -0.4755
     32 C         146.0023  143.2747  153.0334 C.3     1  UNL1        0.2054
     33 C         145.0903  144.2674  153.6911 C.3     1  UNL1        0.0488
     34 C         143.6161  144.2280  153.4169 C.3     1  UNL1        0.0212
     35 C         142.7021  145.2109  154.0866 C.3     1  UNL1        0.0723
     36 N         141.9611  144.8189  155.3305 N.3     1  UNL1       -0.2703
     37 C         141.3500  145.8746  156.2035 C.3     1  UNL1        0.0897
     38 C         140.6090  145.4826  157.4475 C.3     1  UNL1        0.0897
     39 N         140.4791  144.0349  157.8183 N.3     1  UNL1       -0.2703
     40 C         141.0902  142.9793  156.9453 C.3     1  UNL1        0.0897
     41 C         141.8312  143.3712  155.7014 C.3     1  UNL1        0.0897
     42 C         139.7381  143.6430  159.0622 C.3     1  UNL1        0.0721
     43 C         140.0853  144.2812  160.3745 C.3     1  UNL1        0.0160
     44 C         140.4612  145.4971  161.1686 C.3     1  UNL1        0.0014
     45 C         140.3109  144.1710  161.8533 C.3     1  UNL1        0.0014
@<TRIPOS>UNITY_ATOM_ATTR
22 1
charge 1
24 1
charge -1
@<TRIPOS>BOND
     1     1     2    2
     2     2     3    1
     3     3     4    1
     4     4     5    2
     5     5     9    1
     6     9    10   ar
     7    10    11   ar
     8    11    12   ar
     9    12    15    1
    10    15    16    1
    11    16    17   ar
    12    17    18   ar
    13    18    19   ar
    14    19    22    1
    15    22    23    2
    16    22    24    1
    17    19    20   ar
    18    20    21   ar
    19    12    13   ar
    20    13    14   ar
    21     4     6    1
    22     6     7    2
    23     6     8   am
    24     8    25    1
    25    25    26   ar
    26    26    27   ar
    27    27    28   ar
    28    28    31    1
    29    31    32    1
    30    32    33    1
    31    33    34    1
    32    34    35    1
    33    35    36    1
    34    36    37    1
    35    37    38    1
    36    38    39    1
    37    39    42    1
    38    42    43    1
    39    43    44    1
    40    44    45    1
    41    39    40    1
    42    40    41    1
    43    28    29   ar
    44    29    30   ar
    45     8     2   am
    46    30    25   ar
    47    14     9   ar
    48    41    36    1
    49    21    16   ar
    50    45    43    1
