@<TRIPOS>MOLECULE
*****
 29 32 0 0 0
SMALL
GASTEIGER

@<TRIPOS>ATOM
      1 N         141.6180  141.2627  167.3486 N.ar    1  UNL1       -0.2729
      2 C         142.2970  139.9631  167.0322 C.ar    1  UNL1        0.0860
      3 C         142.8115  139.0959  168.1426 C.ar    1  UNL1        0.0561
      4 C         142.6471  139.5282  169.5696 C.ar    1  UNL1        0.1453
      5 C         141.9682  140.8278  169.8860 C.ar    1  UNL1        0.0980
      6 C         141.4536  141.6951  168.7755 C.ar    1  UNL1        0.2679
      7 O         140.7747  142.9946  169.0919 O.2     1  UNL1       -0.2665
      8 N         139.2839  144.6002  162.9762 N.ar    1  UNL1       -0.2494
      9 N         137.8557  144.1527  163.0767 N.ar    1  UNL1       -0.1677
     10 C         137.7637  143.1404  164.1797 C.ar    1  UNL1        0.1216
     11 C         139.1349  142.9622  164.7610 C.ar    1  UNL1        0.0396
     12 C         139.6494  142.0950  165.8715 C.ar    1  UNL1        0.0207
     13 C         141.1035  142.1300  166.2381 C.ar    1  UNL1        0.0670
     14 C         142.0430  143.0321  165.4943 C.ar    1  UNL1        0.0191
     15 C         141.5285  143.8994  164.3838 C.ar    1  UNL1        0.0203
     16 C         140.0745  143.8644  164.0172 C.ar    1  UNL1        0.0795
     17 C         139.8263  145.6067  162.0053 C.3     1  UNL1        0.1447
     18 C         140.7801  145.1744  160.9312 C.3     1  UNL1        0.0988
     19 C         139.5612  143.3746  159.5081 C.3     1  UNL1        0.0897
     20 N         140.2552  144.7007  159.6083 N.3     1  UNL1       -0.2686
     21 C         140.4242  145.5530  158.3856 C.3     1  UNL1        0.0897
     22 O         143.1617  138.6610  170.6800 O.3     1  UNL1       -0.4704
     23 C         143.6814  137.2865  170.3789 C.3     1  UNL1        0.2320
     24 C         144.5789  136.5924  171.3600 C.ar    1  UNL1        0.0212
     25 C         144.4685  135.1097  171.5586 C.ar    1  UNL1       -0.0007
     26 C         145.3660  134.4156  172.5398 C.ar    1  UNL1       -0.0002
     27 C         146.3738  135.2041  173.3225 C.ar    1  UNL1       -0.0000
     28 C         146.4841  136.6868  173.1239 C.ar    1  UNL1       -0.0002
     29 C         145.5867  137.3810  172.1427 C.ar    1  UNL1       -0.0007
@<TRIPOS>BOND
     1    19    20    1
     2    20    21    1
     3    20    18    1
     4    18    17    1
     5    17     8    1
     6     8     9   ar
     7     9    10   ar
     8    10    11   ar
     9    11    12   ar
    10    12    13   ar
    11    13     1    1
    12     1     2   ar
    13     2     3   ar
    14     3     4   ar
    15     4    22    1
    16    22    23    1
    17    23    24    1
    18    24    25   ar
    19    25    26   ar
    20    26    27   ar
    21    27    28   ar
    22    28    29   ar
    23     4     5   ar
    24     5     6   ar
    25     6     7    2
    26    13    14   ar
    27    14    15   ar
    28    15    16   ar
    29    16     8   ar
    30    16    11   ar
    31     6     1   ar
    32    29    24   ar
@<TRIPOS>MOLECULE
*****
 29 32 0 0 0
SMALL
GASTEIGER

@<TRIPOS>ATOM
      1 N         142.4341  139.1187  163.3076 N.ar    1  UNL1       -0.2729
      2 C         143.2936  140.1352  162.6162 C.ar    1  UNL1        0.0860
      3 C         143.6579  139.9520  161.1727 C.ar    1  UNL1        0.0561
      4 C         143.1627  138.7523  160.4206 C.ar    1  UNL1        0.1453
      5 C         142.3032  137.7358  161.1120 C.ar    1  UNL1        0.0980
      6 C         141.9390  137.9191  162.5556 C.ar    1  UNL1        0.2679
      7 O         141.0795  136.9026  163.2471 O.2     1  UNL1       -0.2665
      8 N         140.6829  139.8510  168.9735 N.ar    1  UNL1       -0.2494
      9 N         139.1990  139.8862  168.7575 N.ar    1  UNL1       -0.1677
     10 C         138.9404  139.7254  167.2888 C.ar    1  UNL1        0.1216
     11 C         140.2645  139.5908  166.5970 C.ar    1  UNL1        0.0396
     12 C         140.6287  139.4076  165.1535 C.ar    1  UNL1        0.0207
     13 C         142.0699  139.3020  164.7512 C.ar    1  UNL1        0.0670
     14 C         143.1468  139.3796  165.7924 C.ar    1  UNL1        0.0191
     15 C         142.7826  139.5629  167.2359 C.ar    1  UNL1        0.0203
     16 C         141.3415  139.6685  167.6382 C.ar    1  UNL1        0.0795
     17 C         141.3851  139.9764  170.2930 C.3     1  UNL1        0.1447
     18 C         141.1998  141.2094  171.1271 C.3     1  UNL1        0.0988
     19 C         142.8820  143.0709  170.4527 C.3     1  UNL1        0.0897
     20 N         141.4737  142.5615  170.5380 N.3     1  UNL1       -0.2686
     21 C         140.3395  143.4040  170.0344 C.3     1  UNL1        0.0897
     22 O         143.5270  138.5691  158.9771 O.3     1  UNL1       -0.4704
     23 C         142.4656  138.6472  157.9200 C.3     1  UNL1        0.2320
     24 C         142.1304  137.4349  157.1027 C.ar    1  UNL1        0.0212
     25 C         142.9655  136.1947  157.2233 C.ar    1  UNL1       -0.0007
     26 C         142.6303  134.9824  156.4060 C.ar    1  UNL1       -0.0002
     27 C         141.4600  135.0103  155.4682 C.ar    1  UNL1       -0.0000
     28 C         140.6249  136.2505  155.3476 C.ar    1  UNL1       -0.0002
     29 C         140.9601  137.4628  156.1648 C.ar    1  UNL1       -0.0007
@<TRIPOS>BOND
     1    19    20    1
     2    20    21    1
     3    20    18    1
     4    18    17    1
     5    17     8    1
     6     8     9   ar
     7     9    10   ar
     8    10    11   ar
     9    11    12   ar
    10    12    13   ar
    11    13     1    1
    12     1     2   ar
    13     2     3   ar
    14     3     4   ar
    15     4    22    1
    16    22    23    1
    17    23    24    1
    18    24    25   ar
    19    25    26   ar
    20    26    27   ar
    21    27    28   ar
    22    28    29   ar
    23     4     5   ar
    24     5     6   ar
    25     6     7    2
    26    13    14   ar
    27    14    15   ar
    28    15    16   ar
    29    16     8   ar
    30    16    11   ar
    31     6     1   ar
    32    29    24   ar
@<TRIPOS>MOLECULE
*****
 29 32 0 0 0
SMALL
GASTEIGER

@<TRIPOS>ATOM
      1 N         139.0036  139.8974  163.3978 N.ar    1  UNL1       -0.2729
      2 C         138.8421  141.2135  162.6966 C.ar    1  UNL1        0.0860
      3 C         138.2986  141.2571  161.2993 C.ar    1  UNL1        0.0561
      4 C         137.9165  139.9845  160.6031 C.ar    1  UNL1        0.1453
      5 C         138.0780  138.6684  161.3043 C.ar    1  UNL1        0.0980
      6 C         138.6215  138.6249  162.7017 C.ar    1  UNL1        0.2679
      7 O         138.7830  137.3087  163.4030 O.2     1  UNL1       -0.2665
      8 N         141.4520  139.6730  168.8439 N.ar    1  UNL1       -0.2494
      9 N         142.8776  139.4231  168.4500 N.ar    1  UNL1       -0.1677
     10 C         142.9408  139.3626  166.9526 C.ar    1  UNL1        0.1216
     11 C         141.5543  139.5750  166.4210 C.ar    1  UNL1        0.0396
     12 C         141.0108  139.6185  165.0237 C.ar    1  UNL1        0.0207
     13 C         139.5472  139.8539  164.7953 C.ar    1  UNL1        0.0670
     14 C         138.6270  140.0457  165.9642 C.ar    1  UNL1        0.0191
     15 C         139.1705  140.0022  167.3616 C.ar    1  UNL1        0.0203
     16 C         140.6341  139.7668  167.5900 C.ar    1  UNL1        0.0795
     17 C         140.9349  139.8056  170.2458 C.3     1  UNL1        0.1447
     18 C         141.3426  140.9783  171.0877 C.3     1  UNL1        0.0988
     19 C         140.2682  143.0635  169.9710 C.3     1  UNL1        0.0897
     20 N         141.4831  142.3358  170.4653 N.3     1  UNL1       -0.2686
     21 C         142.8385  142.9655  170.3371 C.3     1  UNL1        0.0897
     22 O         137.3730  140.0281  159.2057 O.3     1  UNL1       -0.4704
     23 C         138.2355  140.5177  158.0804 C.3     1  UNL1        0.2320
     24 C         137.6164  141.2383  156.9197 C.ar    1  UNL1        0.0212
     25 C         137.1241  140.4646  155.7327 C.ar    1  UNL1       -0.0007
     26 C         136.5050  141.1854  154.5719 C.ar    1  UNL1       -0.0002
     27 C         136.3782  142.6797  154.5982 C.ar    1  UNL1       -0.0000
     28 C         136.8705  143.4534  155.7852 C.ar    1  UNL1       -0.0002
     29 C         137.4896  142.7328  156.9459 C.ar    1  UNL1       -0.0007
@<TRIPOS>BOND
     1    19    20    1
     2    20    21    1
     3    20    18    1
     4    18    17    1
     5    17     8    1
     6     8     9   ar
     7     9    10   ar
     8    10    11   ar
     9    11    12   ar
    10    12    13   ar
    11    13     1    1
    12     1     2   ar
    13     2     3   ar
    14     3     4   ar
    15     4    22    1
    16    22    23    1
    17    23    24    1
    18    24    25   ar
    19    25    26   ar
    20    26    27   ar
    21    27    28   ar
    22    28    29   ar
    23     4     5   ar
    24     5     6   ar
    25     6     7    2
    26    13    14   ar
    27    14    15   ar
    28    15    16   ar
    29    16     8   ar
    30    16    11   ar
    31     6     1   ar
    32    29    24   ar
@<TRIPOS>MOLECULE
*****
 29 32 0 0 0
SMALL
GASTEIGER

@<TRIPOS>ATOM
      1 N         140.6905  143.2754  163.3084 N.ar    1  UNL1       -0.2729
      2 C         141.7192  142.7457  162.3537 C.ar    1  UNL1        0.0860
      3 C         142.0087  143.4814  161.0791 C.ar    1  UNL1        0.0561
      4 C         141.2696  144.7469  160.7590 C.ar    1  UNL1        0.1453
      5 C         140.2410  145.2766  161.7136 C.ar    1  UNL1        0.0980
      6 C         139.9514  144.5408  162.9883 C.ar    1  UNL1        0.2679
      7 O         138.9228  145.0705  163.9429 O.2     1  UNL1       -0.2665
      8 N         139.3571  140.1490  168.2229 N.ar    1  UNL1       -0.2494
      9 N         138.4581  139.1176  167.6079 N.ar    1  UNL1       -0.1677
     10 C         138.3674  139.3994  166.1375 C.ar    1  UNL1        0.1216
     11 C         139.2102  140.6049  165.8436 C.ar    1  UNL1        0.0396
     12 C         139.4997  141.3406  164.5689 C.ar    1  UNL1        0.0207
     13 C         140.4010  142.5396  164.5831 C.ar    1  UNL1        0.0670
     14 C         141.0127  143.0029  165.8720 C.ar    1  UNL1        0.0191
     15 C         140.7232  142.2671  167.1467 C.ar    1  UNL1        0.0203
     16 C         139.8219  141.0682  167.1325 C.ar    1  UNL1        0.0795
     17 C         139.7265  140.2444  169.6736 C.3     1  UNL1        0.1447
     18 C         141.0242  139.6675  170.1566 C.3     1  UNL1        0.0988
     19 C         142.8143  139.2314  168.3249 C.3     1  UNL1        0.0897
     20 N         142.3096  140.0431  169.4809 N.3     1  UNL1       -0.2686
     21 C         143.0904  141.2304  169.9612 C.3     1  UNL1        0.0897
     22 O         141.5592  145.4826  159.4843 O.3     1  UNL1       -0.4704
     23 C         140.4375  145.8483  158.5580 C.3     1  UNL1        0.2320
     24 C         140.6747  145.9030  157.0779 C.ar    1  UNL1        0.0212
     25 C         139.7061  146.6256  156.1893 C.ar    1  UNL1       -0.0007
     26 C         139.9433  146.6803  154.7091 C.ar    1  UNL1       -0.0002
     27 C         141.1492  146.0125  154.1176 C.ar    1  UNL1       -0.0000
     28 C         142.1178  145.2900  155.0062 C.ar    1  UNL1       -0.0002
     29 C         141.8806  145.2352  156.4863 C.ar    1  UNL1       -0.0007
@<TRIPOS>BOND
     1    19    20    1
     2    20    21    1
     3    20    18    1
     4    18    17    1
     5    17     8    1
     6     8     9   ar
     7     9    10   ar
     8    10    11   ar
     9    11    12   ar
    10    12    13   ar
    11    13     1    1
    12     1     2   ar
    13     2     3   ar
    14     3     4   ar
    15     4    22    1
    16    22    23    1
    17    23    24    1
    18    24    25   ar
    19    25    26   ar
    20    26    27   ar
    21    27    28   ar
    22    28    29   ar
    23     4     5   ar
    24     5     6   ar
    25     6     7    2
    26    13    14   ar
    27    14    15   ar
    28    15    16   ar
    29    16     8   ar
    30    16    11   ar
    31     6     1   ar
    32    29    24   ar
@<TRIPOS>MOLECULE
*****
 29 32 0 0 0
SMALL
GASTEIGER

@<TRIPOS>ATOM
      1 N         140.1991  143.6428  162.1072 N.ar    1  UNL1       -0.2729
      2 C         141.4284  142.9336  162.5926 C.ar    1  UNL1        0.0860
      3 C         141.5529  142.5523  164.0380 C.ar    1  UNL1        0.0561
      4 C         140.4479  142.8803  164.9980 C.ar    1  UNL1        0.1453
      5 C         139.2185  143.5895  164.5126 C.ar    1  UNL1        0.0980
      6 C         139.0941  143.9708  163.0671 C.ar    1  UNL1        0.2679
      7 O         137.8648  144.6800  162.5817 O.2     1  UNL1       -0.2665
      8 N         139.5855  144.8782  156.2932 N.ar    1  UNL1       -0.2494
      9 N         139.0043  143.5731  155.8363 N.ar    1  UNL1       -0.1677
     10 C         138.8855  142.6748  157.0316 C.ar    1  UNL1        0.1216
     11 C         139.3933  143.4247  158.2274 C.ar    1  UNL1        0.0396
     12 C         139.5177  143.0434  159.6727 C.ar    1  UNL1        0.0207
     13 C         140.0747  144.0240  160.6617 C.ar    1  UNL1        0.0670
     14 C         140.5073  145.3858  160.2054 C.ar    1  UNL1        0.0191
     15 C         140.3829  145.7671  158.7600 C.ar    1  UNL1        0.0203
     16 C         139.8260  144.7865  157.7710 C.ar    1  UNL1        0.0795
     17 C         139.8754  146.0665  155.4249 C.3     1  UNL1        0.1447
     18 C         138.7909  147.0584  155.1246 C.3     1  UNL1        0.0988
     19 C         140.0335  148.9762  153.8886 C.3     1  UNL1        0.0897
     20 N         139.1233  148.5147  154.9879 N.3     1  UNL1       -0.2686
     21 C         138.5456  149.5094  155.9506 C.3     1  UNL1        0.0897
     22 O         140.5723  142.4991  166.4434 O.3     1  UNL1       -0.4704
     23 C         141.0113  141.1148  166.8188 C.3     1  UNL1        0.2320
     24 C         140.2421  139.9247  166.3267 C.ar    1  UNL1        0.0212
     25 C         138.8643  139.6522  166.8531 C.ar    1  UNL1       -0.0007
     26 C         138.0951  138.4621  166.3609 C.ar    1  UNL1       -0.0002
     27 C         138.7039  137.5446  165.3423 C.ar    1  UNL1       -0.0000
     28 C         140.0817  137.8172  164.8158 C.ar    1  UNL1       -0.0002
     29 C         140.8509  139.0072  165.3080 C.ar    1  UNL1       -0.0007
@<TRIPOS>BOND
     1    19    20    1
     2    20    21    1
     3    20    18    1
     4    18    17    1
     5    17     8    1
     6     8     9   ar
     7     9    10   ar
     8    10    11   ar
     9    11    12   ar
    10    12    13   ar
    11    13     1    1
    12     1     2   ar
    13     2     3   ar
    14     3     4   ar
    15     4    22    1
    16    22    23    1
    17    23    24    1
    18    24    25   ar
    19    25    26   ar
    20    26    27   ar
    21    27    28   ar
    22    28    29   ar
    23     4     5   ar
    24     5     6   ar
    25     6     7    2
    26    13    14   ar
    27    14    15   ar
    28    15    16   ar
    29    16     8   ar
    30    16    11   ar
    31     6     1   ar
    32    29    24   ar
@<TRIPOS>MOLECULE
*****
 29 32 0 0 0
SMALL
GASTEIGER

@<TRIPOS>ATOM
      1 N         139.9616  138.7788  162.0583 N.ar    1  UNL1       -0.2729
      2 C         139.6568  137.6471  162.9945 C.ar    1  UNL1        0.0860
      3 C         139.0427  137.9266  164.3341 C.ar    1  UNL1        0.0561
      4 C         138.7333  139.3378  164.7377 C.ar    1  UNL1        0.1453
      5 C         139.0381  140.4695  163.8015 C.ar    1  UNL1        0.0980
      6 C         139.6523  140.1900  162.4618 C.ar    1  UNL1        0.2679
      7 O         139.9571  141.3217  161.5257 O.2     1  UNL1       -0.2665
      8 N         142.1280  137.7116  156.5927 N.ar    1  UNL1       -0.2494
      9 N         140.8676  137.8967  155.8007 N.ar    1  UNL1       -0.1677
     10 C         139.7649  138.2397  156.7579 C.ar    1  UNL1        0.1216
     11 C         140.3436  138.2666  158.1415 C.ar    1  UNL1        0.0396
     12 C         139.7295  138.5461  159.4811 C.ar    1  UNL1        0.0207
     13 C         140.5758  138.4993  160.7186 C.ar    1  UNL1        0.0670
     14 C         142.0363  138.1728  160.6165 C.ar    1  UNL1        0.0191
     15 C         142.6504  137.8933  159.2769 C.ar    1  UNL1        0.0203
     16 C         141.8041  137.9402  158.0394 C.ar    1  UNL1        0.0795
     17 C         143.4756  137.3596  156.0359 C.3     1  UNL1        0.1447
     18 C         143.7694  135.9492  155.6180 C.3     1  UNL1        0.0988
     19 C         141.8233  134.2281  155.5977 C.3     1  UNL1        0.0897
     20 N         143.0372  134.8086  156.2606 N.3     1  UNL1       -0.2686
     21 C         143.5189  134.2486  157.5661 C.3     1  UNL1        0.0897
     22 O         138.1192  139.6173  166.0773 O.3     1  UNL1       -0.4704
     23 C         138.9386  139.4653  167.3245 C.3     1  UNL1        0.2320
     24 C         140.1903  140.2725  167.5025 C.ar    1  UNL1        0.0212
     25 C         141.4822  139.7940  166.9093 C.ar    1  UNL1       -0.0007
     26 C         142.7338  140.6013  167.0874 C.ar    1  UNL1       -0.0002
     27 C         142.6935  141.8871  167.8587 C.ar    1  UNL1       -0.0000
     28 C         141.4016  142.3657  168.4520 C.ar    1  UNL1       -0.0002
     29 C         140.1500  141.5584  168.2739 C.ar    1  UNL1       -0.0007
@<TRIPOS>BOND
     1    19    20    1
     2    20    21    1
     3    20    18    1
     4    18    17    1
     5    17     8    1
     6     8     9   ar
     7     9    10   ar
     8    10    11   ar
     9    11    12   ar
    10    12    13   ar
    11    13     1    1
    12     1     2   ar
    13     2     3   ar
    14     3     4   ar
    15     4    22    1
    16    22    23    1
    17    23    24    1
    18    24    25   ar
    19    25    26   ar
    20    26    27   ar
    21    27    28   ar
    22    28    29   ar
    23     4     5   ar
    24     5     6   ar
    25     6     7    2
    26    13    14   ar
    27    14    15   ar
    28    15    16   ar
    29    16     8   ar
    30    16    11   ar
    31     6     1   ar
    32    29    24   ar
@<TRIPOS>MOLECULE
*****
 29 32 0 0 0
SMALL
GASTEIGER

@<TRIPOS>ATOM
      1 N         139.8961  139.1550  164.5160 N.ar    1  UNL1       -0.2729
      2 C         138.7654  138.3665  165.1074 C.ar    1  UNL1        0.0860
      3 C         138.3513  138.6004  166.5300 C.ar    1  UNL1        0.0561
      4 C         139.0680  139.6229  167.3613 C.ar    1  UNL1        0.1453
      5 C         140.1987  140.4115  166.7699 C.ar    1  UNL1        0.0980
      6 C         140.6127  140.1775  165.3472 C.ar    1  UNL1        0.2679
      7 O         141.7434  140.9660  164.7559 O.2     1  UNL1       -0.2665
      8 N         141.2868  138.3714  158.7578 N.ar    1  UNL1       -0.2494
      9 N         140.1030  139.0511  158.1361 N.ar    1  UNL1       -0.1677
     10 C         139.2229  139.5529  159.2423 C.ar    1  UNL1        0.1216
     11 C         139.8627  139.1833  160.5477 C.ar    1  UNL1        0.0396
     12 C         139.4486  139.4173  161.9702 C.ar    1  UNL1        0.0207
     13 C         140.3102  138.9210  163.0934 C.ar    1  UNL1        0.0670
     14 C         141.5858  138.1908  162.7940 C.ar    1  UNL1        0.0191
     15 C         141.9998  137.9568  161.3714 C.ar    1  UNL1        0.0203
     16 C         141.1383  138.4531  160.2482 C.ar    1  UNL1        0.0795
     17 C         142.4201  137.7237  158.0189 C.3     1  UNL1        0.1447
     18 C         142.1389  136.6724  156.9865 C.3     1  UNL1        0.0988
     19 C         144.1767  136.1265  155.4703 C.3     1  UNL1        0.0897
     20 N         143.2254  135.7302  156.5602 N.3     1  UNL1       -0.2686
     21 C         143.3607  134.3918  157.2238 C.3     1  UNL1        0.0897
     22 O         138.6539  139.8569  168.7839 O.3     1  UNL1       -0.4704
     23 C         139.6769  139.8114  169.8799 C.3     1  UNL1        0.2320
     24 C         140.7729  140.8345  169.9258 C.ar    1  UNL1        0.0212
     25 C         142.2078  140.3973  169.9180 C.ar    1  UNL1       -0.0007
     26 C         143.3038  141.4205  169.9638 C.ar    1  UNL1       -0.0002
     27 C         142.9649  142.8807  170.0175 C.ar    1  UNL1       -0.0000
     28 C         141.5300  143.3178  170.0254 C.ar    1  UNL1       -0.0002
     29 C         140.4340  142.2948  169.9795 C.ar    1  UNL1       -0.0007
@<TRIPOS>BOND
     1    19    20    1
     2    20    21    1
     3    20    18    1
     4    18    17    1
     5    17     8    1
     6     8     9   ar
     7     9    10   ar
     8    10    11   ar
     9    11    12   ar
    10    12    13   ar
    11    13     1    1
    12     1     2   ar
    13     2     3   ar
    14     3     4   ar
    15     4    22    1
    16    22    23    1
    17    23    24    1
    18    24    25   ar
    19    25    26   ar
    20    26    27   ar
    21    27    28   ar
    22    28    29   ar
    23     4     5   ar
    24     5     6   ar
    25     6     7    2
    26    13    14   ar
    27    14    15   ar
    28    15    16   ar
    29    16     8   ar
    30    16    11   ar
    31     6     1   ar
    32    29    24   ar
@<TRIPOS>MOLECULE
*****
 29 32 0 0 0
SMALL
GASTEIGER

@<TRIPOS>ATOM
      1 N         139.9281  139.1590  162.1534 N.ar    1  UNL1       -0.2729
      2 C         139.0064  140.2955  162.4833 C.ar    1  UNL1        0.0860
      3 C         138.2758  140.3126  163.7932 C.ar    1  UNL1        0.0561
      4 C         138.4669  139.1932  164.7733 C.ar    1  UNL1        0.1453
      5 C         139.3886  138.0567  164.4434 C.ar    1  UNL1        0.0980
      6 C         140.1192  138.0396  163.1334 C.ar    1  UNL1        0.2679
      7 O         141.0409  136.9031  162.8035 O.2     1  UNL1       -0.2665
      8 N         143.0671  139.2548  157.0698 N.ar    1  UNL1       -0.2494
      9 N         144.2564  140.0365  157.5434 N.ar    1  UNL1       -0.1677
     10 C         144.0442  140.3726  158.9898 C.ar    1  UNL1        0.1216
     11 C         142.7237  139.7985  159.4101 C.ar    1  UNL1        0.0396
     12 C         141.9932  139.8156  160.7201 C.ar    1  UNL1        0.0207
     13 C         140.6587  139.1419  160.8434 C.ar    1  UNL1        0.0670
     14 C         140.0548  138.4511  159.6568 C.ar    1  UNL1        0.0191
     15 C         140.7853  138.4340  158.3469 C.ar    1  UNL1        0.0203
     16 C         142.1198  139.1077  158.2235 C.ar    1  UNL1        0.0795
     17 C         142.8611  138.7149  155.6856 C.3     1  UNL1        0.1447
     18 C         143.4569  137.3934  155.2996 C.3     1  UNL1        0.0988
     19 C         141.3470  135.9162  155.6399 C.3     1  UNL1        0.0897
     20 N         142.8269  136.1186  155.7770 N.3     1  UNL1       -0.2686
     21 C         143.6768  135.0462  156.3914 C.3     1  UNL1        0.0897
     22 O         137.7363  139.2103  166.0832 O.3     1  UNL1       -0.4704
     23 C         138.4933  139.0368  167.3665 C.3     1  UNL1        0.2320
     24 C         139.1961  140.2077  167.9869 C.ar    1  UNL1        0.0212
     25 C         139.1701  140.3958  169.4748 C.ar    1  UNL1       -0.0007
     26 C         139.8730  141.5667  170.0952 C.ar    1  UNL1       -0.0002
     27 C         140.6019  142.5496  169.2277 C.ar    1  UNL1       -0.0000
     28 C         140.6279  142.3616  167.7398 C.ar    1  UNL1       -0.0002
     29 C         139.9250  141.1907  167.1194 C.ar    1  UNL1       -0.0007
@<TRIPOS>BOND
     1    19    20    1
     2    20    21    1
     3    20    18    1
     4    18    17    1
     5    17     8    1
     6     8     9   ar
     7     9    10   ar
     8    10    11   ar
     9    11    12   ar
    10    12    13   ar
    11    13     1    1
    12     1     2   ar
    13     2     3   ar
    14     3     4   ar
    15     4    22    1
    16    22    23    1
    17    23    24    1
    18    24    25   ar
    19    25    26   ar
    20    26    27   ar
    21    27    28   ar
    22    28    29   ar
    23     4     5   ar
    24     5     6   ar
    25     6     7    2
    26    13    14   ar
    27    14    15   ar
    28    15    16   ar
    29    16     8   ar
    30    16    11   ar
    31     6     1   ar
    32    29    24   ar
@<TRIPOS>MOLECULE
*****
 29 32 0 0 0
SMALL
GASTEIGER

@<TRIPOS>ATOM
      1 N         142.4880  141.0152  167.3614 N.ar    1  UNL1       -0.2729
      2 C         142.7154  139.5798  166.9899 C.ar    1  UNL1        0.0860
      3 C         142.9738  138.5602  168.0593 C.ar    1  UNL1        0.0561
      4 C         143.0047  138.9759  169.5002 C.ar    1  UNL1        0.1453
      5 C         142.7772  140.4112  169.8718 C.ar    1  UNL1        0.0980
      6 C         142.5188  141.4309  168.8023 C.ar    1  UNL1        0.2679
      7 O         142.2913  142.8662  169.1738 O.2     1  UNL1       -0.2665
      8 N         141.7613  145.0632  163.0266 N.ar    1  UNL1       -0.2494
      9 N         143.1749  145.1308  162.5296 N.ar    1  UNL1       -0.1677
     10 C         144.0001  144.1834  163.3490 C.ar    1  UNL1        0.1216
     11 C         143.0965  143.5303  164.3525 C.ar    1  UNL1        0.0396
     12 C         143.3549  142.5107  165.4219 C.ar    1  UNL1        0.0207
     13 C         142.2296  142.0348  166.2920 C.ar    1  UNL1        0.0670
     14 C         140.8459  142.5785  166.0927 C.ar    1  UNL1        0.0191
     15 C         140.5875  143.5981  165.0234 C.ar    1  UNL1        0.0203
     16 C         141.7128  144.0740  164.1532 C.ar    1  UNL1        0.0795
     17 C         140.6000  145.8471  162.4911 C.3     1  UNL1        0.1447
     18 C         139.6652  145.2200  161.4996 C.3     1  UNL1        0.0988
     19 C         138.9826  142.7227  161.2832 C.3     1  UNL1        0.0897
     20 N         138.7941  144.0710  161.9128 N.3     1  UNL1       -0.2686
     21 C         137.7345  144.2703  162.9557 C.3     1  UNL1        0.0897
     22 O         143.2630  137.9563  170.5696 O.3     1  UNL1       -0.4704
     23 C         144.4971  138.0540  171.4167 C.3     1  UNL1        0.2320
     24 C         145.0781  136.8199  172.0406 C.ar    1  UNL1        0.0212
     25 C         144.5640  135.4670  171.6465 C.ar    1  UNL1       -0.0007
     26 C         145.1452  134.2329  172.2705 C.ar    1  UNL1       -0.0002
     27 C         146.2403  134.3517  173.2886 C.ar    1  UNL1       -0.0000
     28 C         146.7544  135.7046  173.6827 C.ar    1  UNL1       -0.0002
     29 C         146.1734  136.9387  173.0587 C.ar    1  UNL1       -0.0007
@<TRIPOS>BOND
     1    19    20    1
     2    20    21    1
     3    20    18    1
     4    18    17    1
     5    17     8    1
     6     8     9   ar
     7     9    10   ar
     8    10    11   ar
     9    11    12   ar
    10    12    13   ar
    11    13     1    1
    12     1     2   ar
    13     2     3   ar
    14     3     4   ar
    15     4    22    1
    16    22    23    1
    17    23    24    1
    18    24    25   ar
    19    25    26   ar
    20    26    27   ar
    21    27    28   ar
    22    28    29   ar
    23     4     5   ar
    24     5     6   ar
    25     6     7    2
    26    13    14   ar
    27    14    15   ar
    28    15    16   ar
    29    16     8   ar
    30    16    11   ar
    31     6     1   ar
    32    29    24   ar
