@<TRIPOS>MOLECULE
*****
 38 42 0 0 0
SMALL
GASTEIGER

@<TRIPOS>ATOM
      1 C         142.0060  144.2413  162.1634 C.2     1  UNL1        0.2352
      2 O         143.3454  144.9159  162.1922 O.2     1  UNL1       -0.2737
      3 N         141.5300  143.5723  160.9080 N.am    1  UNL1       -0.3011
      4 H         140.6509  143.1295  160.8891 H       1  UNL1        0.1497
      5 N         140.9686  145.6607  162.9556 N.3     1  UNL1       -0.3162
      6 C         141.1425  144.2356  163.3898 C.3     1  UNL1        0.1166
      7 C         141.6163  142.8123  163.3982 C.3     1  UNL1        0.0739
      8 C         141.1662  141.8784  164.4822 C.3     1  UNL1        0.2039
      9 N         140.2423  142.3676  165.5579 N.pl3   1  UNL1       -0.1931
     10 C         139.7684  143.7908  165.5496 C.3     1  UNL1        0.2039
     11 C         140.2186  144.7247  164.4655 C.3     1  UNL1        0.0739
     12 H         141.5110  145.8264  162.1078 H       1  UNL1        0.1192
     13 H         141.2943  146.2835  163.6948 H       1  UNL1        0.1192
     14 C         139.7922  141.4336  166.6419 C.2     1  UNL1        0.3205
     15 N         139.0689  140.1678  166.2888 N.2     1  UNL1        0.0097
     16 C         138.6189  139.2338  167.3727 C.2     1  UNL1        0.4717
     17 N         138.8920  139.5656  168.8099 N.2     1  UNL1        0.0158
     18 C         139.6152  140.8313  169.1630 C.2     1  UNL1        0.3714
     19 N         140.0232  141.4199  170.4810 N.2     1  UNL1       -0.0339
     20 C         140.7255  142.7176  170.2116 C.2     1  UNL1        0.2323
     21 C         140.7515  142.9312  168.7271 C.2     1  UNL1        0.0486
     22 C         140.0653  141.7654  168.0790 C.3     1  UNL1        0.2428
     23 C         142.3935  143.5780  159.6814 C.3     1  UNL1        0.0955
     24 C         141.9700  144.3539  158.4696 C.ar    1  UNL1       -0.0044
     25 C         142.6202  144.0886  157.1441 C.ar    1  UNL1       -0.0018
     26 C         142.1966  144.8645  155.9323 C.ar    1  UNL1        0.0111
     27 C         141.1229  145.9058  156.0460 C.ar    1  UNL1        0.0577
     28 CL        140.6994  146.6817  154.8341 Cl      1  UNL1       -0.0822
     29 C         140.4727  146.1711  157.3715 C.ar    1  UNL1        0.0111
     30 C         140.8963  145.3952  158.5834 C.ar    1  UNL1       -0.0018
     31 C         143.6806  142.8076  159.6668 C.3     1  UNL1        0.0414
     32 C         143.7072  141.3828  160.1348 C.3     1  UNL1        0.0741
     33 N         144.2097  141.0541  161.5094 N.3     1  UNL1       -0.2726
     34 C         143.7964  139.7739  162.1729 C.3     1  UNL1        0.0721
     35 C         144.2989  139.4454  163.5475 C.3     1  UNL1        0.0174
     36 C         145.2147  140.3971  164.2586 C.3     1  UNL1        0.0029
     37 C         145.6279  141.6773  163.5951 C.3     1  UNL1        0.0174
     38 C         145.1254  142.0059  162.2205 C.3     1  UNL1        0.0721
@<TRIPOS>BOND
     1     5     6    1
     2     6     1    1
     3     1     2    2
     4     1     3   am
     5     3    23    1
     6    23    31    1
     7    31    32    1
     8    32    33    1
     9    33    34    1
    10    34    35    1
    11    35    36    1
    12    36    37    1
    13    37    38    1
    14    23    24    1
    15    24    25   ar
    16    25    26   ar
    17    26    27   ar
    18    27    28    1
    19    27    29   ar
    20    29    30   ar
    21     6     7    1
    22     7     8    1
    23     8     9    1
    24     9    14    1
    25    14    15    2
    26    15    16    1
    27    16    17    2
    28    17    18    1
    29    18    19    2
    30    19    20    1
    31    20    21    2
    32    21    22    1
    33     9    10    1
    34    10    11    1
    35    11     6    1
    36    38    33    1
    37    30    24   ar
    38    22    14    1
    39    22    18    1
    40     5    12    1
    41     5    13    1
    42     3     4    1
@<TRIPOS>MOLECULE
*****
 38 42 0 0 0
SMALL
GASTEIGER

@<TRIPOS>ATOM
      1 C         143.2587  143.5419  163.0692 C.2     1  UNL1        0.2352
      2 O         144.2222  144.5954  162.6089 O.2     1  UNL1       -0.2737
      3 N         142.2538  142.9743  162.1110 N.am    1  UNL1       -0.3011
      4 H         141.6215  142.2829  162.4132 H       1  UNL1        0.1497
      5 N         144.7311  143.4698  164.3124 N.3     1  UNL1       -0.3162
      6 C         143.3001  143.0559  164.4876 C.3     1  UNL1        0.1166
      7 C         141.8546  142.8108  164.1703 C.3     1  UNL1        0.0739
      8 C         140.9475  142.2235  165.2105 C.3     1  UNL1        0.2039
      9 N         141.4858  141.8812  166.5682 N.pl3   1  UNL1       -0.1931
     10 C         142.9312  142.1263  166.8856 C.3     1  UNL1        0.2039
     11 C         143.8383  142.7136  165.8452 C.3     1  UNL1        0.0739
     12 H         144.8669  143.8332  163.3690 H       1  UNL1        0.1192
     13 H         145.3384  142.6631  164.4566 H       1  UNL1        0.1192
     14 C         140.5787  141.2939  167.6084 C.2     1  UNL1        0.3205
     15 N         140.6476  141.7814  169.0253 N.2     1  UNL1        0.0097
     16 C         139.7405  141.1941  170.0655 C.2     1  UNL1        0.4717
     17 N         138.7644  140.1192  169.6889 N.2     1  UNL1        0.0158
     18 C         138.6955  139.6316  168.2721 C.2     1  UNL1        0.3714
     19 N         137.8413  138.5921  167.6088 N.2     1  UNL1       -0.0339
     20 C         138.2206  138.5371  166.1586 C.2     1  UNL1        0.2323
     21 C         139.3091  139.5425  165.9256 C.2     1  UNL1        0.0486
     22 C         139.6026  140.2190  167.2318 C.3     1  UNL1        0.2428
     23 C         142.2124  143.4603  160.6925 C.3     1  UNL1        0.0955
     24 C         142.9473  142.7106  159.6211 C.ar    1  UNL1       -0.0044
     25 C         143.2895  143.3917  158.3292 C.ar    1  UNL1       -0.0018
     26 C         144.0244  142.6419  157.2578 C.ar    1  UNL1        0.0111
     27 C         144.4170  141.2111  157.4784 C.ar    1  UNL1        0.0577
     28 CL        145.1519  140.4614  156.4069 Cl      1  UNL1       -0.0822
     29 C         144.0749  140.5300  158.7702 C.ar    1  UNL1        0.0111
     30 C         143.3400  141.2798  159.8417 C.ar    1  UNL1       -0.0018
     31 C         141.4361  144.6960  160.3454 C.3     1  UNL1        0.0414
     32 C         139.9364  144.6647  160.3472 C.3     1  UNL1        0.0741
     33 N         139.1968  144.2317  161.5783 N.3     1  UNL1       -0.2726
     34 C         139.2494  145.0724  162.8195 C.3     1  UNL1        0.0721
     35 C         138.5098  144.6394  164.0504 C.3     1  UNL1        0.0174
     36 C         137.7175  143.3657  164.0402 C.3     1  UNL1        0.0029
     37 C         137.6649  142.5251  162.7991 C.3     1  UNL1        0.0174
     38 C         138.4045  142.9581  161.5681 C.3     1  UNL1        0.0721
@<TRIPOS>BOND
     1     5     6    1
     2     6     1    1
     3     1     2    2
     4     1     3   am
     5     3    23    1
     6    23    31    1
     7    31    32    1
     8    32    33    1
     9    33    34    1
    10    34    35    1
    11    35    36    1
    12    36    37    1
    13    37    38    1
    14    23    24    1
    15    24    25   ar
    16    25    26   ar
    17    26    27   ar
    18    27    28    1
    19    27    29   ar
    20    29    30   ar
    21     6     7    1
    22     7     8    1
    23     8     9    1
    24     9    14    1
    25    14    15    2
    26    15    16    1
    27    16    17    2
    28    17    18    1
    29    18    19    2
    30    19    20    1
    31    20    21    2
    32    21    22    1
    33     9    10    1
    34    10    11    1
    35    11     6    1
    36    38    33    1
    37    30    24   ar
    38    22    14    1
    39    22    18    1
    40     5    12    1
    41     5    13    1
    42     3     4    1
@<TRIPOS>MOLECULE
*****
 38 42 0 0 0
SMALL
GASTEIGER

@<TRIPOS>ATOM
      1 C         139.6480  140.7636  164.5981 C.2     1  UNL1        0.2352
      2 O         139.0233  140.4606  165.9277 O.2     1  UNL1       -0.2737
      3 N         141.0567  140.3327  164.3156 N.am    1  UNL1       -0.3011
      4 H         141.4667  140.5316  163.4429 H       1  UNL1        0.1497
      5 N         137.7713  141.2026  164.5352 N.3     1  UNL1       -0.3162
      6 C         138.8640  141.4976  163.5509 C.3     1  UNL1        0.1166
      7 C         140.2290  141.5376  162.9302 C.3     1  UNL1        0.0739
      8 C         140.4306  142.2091  161.6043 C.3     1  UNL1        0.2039
      9 N         139.2671  142.8407  160.8988 N.pl3   1  UNL1       -0.1931
     10 C         137.9021  142.8007  161.5194 C.3     1  UNL1        0.2039
     11 C         137.7006  142.1291  162.8455 C.3     1  UNL1        0.0739
     12 H         138.1575  140.6913  165.3288 H       1  UNL1        0.1192
     13 H         137.0512  140.6379  164.0847 H       1  UNL1        0.1192
     14 C         139.4687  143.5123  159.5728 C.2     1  UNL1        0.3205
     15 N         140.0328  144.9009  159.5134 N.2     1  UNL1        0.0097
     16 C         140.2344  145.5724  158.1875 C.2     1  UNL1        0.4717
     17 N         139.8719  144.8554  156.9207 N.2     1  UNL1        0.0158
     18 C         139.3078  143.4668  156.9801 C.2     1  UNL1        0.3714
     19 N         138.8613  142.5182  155.9074 N.2     1  UNL1       -0.0339
     20 C         138.3837  141.2603  156.5705 C.2     1  UNL1        0.2323
     21 C         138.5351  141.4315  158.0530 C.2     1  UNL1        0.0486
     22 C         139.1062  142.7952  158.3061 C.3     1  UNL1        0.2428
     23 C         141.8408  139.5987  165.3628 C.3     1  UNL1        0.0955
     24 C         142.3210  140.3231  166.5853 C.ar    1  UNL1       -0.0044
     25 C         142.3066  139.6358  167.9185 C.ar    1  UNL1       -0.0018
     26 C         142.7868  140.3602  169.1411 C.ar    1  UNL1        0.0111
     27 C         143.2813  141.7720  169.0304 C.ar    1  UNL1        0.0577
     28 CL        143.7615  142.4964  170.2530 Cl      1  UNL1       -0.0822
     29 C         143.2957  142.4594  167.6973 C.ar    1  UNL1        0.0111
     30 C         142.8155  141.7350  166.4747 C.ar    1  UNL1       -0.0018
     31 C         142.1447  138.1403  165.1874 C.3     1  UNL1        0.0414
     32 C         141.1242  137.2306  164.5700 C.3     1  UNL1        0.0741
     33 N         140.4629  137.6120  163.2788 N.3     1  UNL1       -0.2726
     34 C         138.9672  137.6892  163.1962 C.3     1  UNL1        0.0721
     35 C         138.3061  138.0705  161.9050 C.3     1  UNL1        0.0174
     36 C         139.1407  138.3747  160.6963 C.3     1  UNL1        0.0029
     37 C         140.6364  138.2975  160.7788 C.3     1  UNL1        0.0174
     38 C         141.2975  137.9161  162.0701 C.3     1  UNL1        0.0721
@<TRIPOS>BOND
     1     5     6    1
     2     6     1    1
     3     1     2    2
     4     1     3   am
     5     3    23    1
     6    23    31    1
     7    31    32    1
     8    32    33    1
     9    33    34    1
    10    34    35    1
    11    35    36    1
    12    36    37    1
    13    37    38    1
    14    23    24    1
    15    24    25   ar
    16    25    26   ar
    17    26    27   ar
    18    27    28    1
    19    27    29   ar
    20    29    30   ar
    21     6     7    1
    22     7     8    1
    23     8     9    1
    24     9    14    1
    25    14    15    2
    26    15    16    1
    27    16    17    2
    28    17    18    1
    29    18    19    2
    30    19    20    1
    31    20    21    2
    32    21    22    1
    33     9    10    1
    34    10    11    1
    35    11     6    1
    36    38    33    1
    37    30    24   ar
    38    22    14    1
    39    22    18    1
    40     5    12    1
    41     5    13    1
    42     3     4    1
@<TRIPOS>MOLECULE
*****
 38 42 0 0 0
SMALL
GASTEIGER

@<TRIPOS>ATOM
      1 C         142.2807  143.0855  162.6944 C.2     1  UNL1        0.2352
      2 O         141.4496  141.9435  162.1894 O.2     1  UNL1       -0.2737
      3 N         142.4712  144.3074  161.8455 N.am    1  UNL1       -0.3011
      4 H         143.0167  145.0570  162.1770 H       1  UNL1        0.1497
      5 N         143.9347  143.8465  163.3300 N.3     1  UNL1       -0.3162
      6 C         142.9214  143.0057  164.0484 C.3     1  UNL1        0.1166
      7 C         141.6855  142.1926  164.2966 C.3     1  UNL1        0.0739
      8 C         141.4423  141.5917  165.6492 C.3     1  UNL1        0.2039
      9 N         142.4349  141.8039  166.7538 N.pl3   1  UNL1       -0.1931
     10 C         143.6707  142.6170  166.5056 C.3     1  UNL1        0.2039
     11 C         143.9139  143.2179  165.1528 C.3     1  UNL1        0.0739
     12 H         143.6328  143.9940  162.3669 H       1  UNL1        0.1192
     13 H         144.8365  143.3699  163.3344 H       1  UNL1        0.1192
     14 C         142.1916  141.2030  168.1064 C.2     1  UNL1        0.3205
     15 N         142.7748  139.8639  168.4481 N.2     1  UNL1        0.0097
     16 C         142.5315  139.2630  169.8007 C.2     1  UNL1        0.4717
     17 N         141.7049  140.0011  170.8117 N.2     1  UNL1        0.0158
     18 C         141.1217  141.3402  170.4700 C.2     1  UNL1        0.3714
     19 N         140.2725  142.2950  171.2556 N.2     1  UNL1       -0.0339
     20 C         139.9909  143.4861  170.3883 C.2     1  UNL1        0.2323
     21 C         140.6662  143.2674  169.0669 C.2     1  UNL1        0.0486
     22 C         141.3651  141.9411  169.1174 C.3     1  UNL1        0.2428
     23 C         141.8306  144.3873  160.4915 C.3     1  UNL1        0.0955
     24 C         142.5165  143.7863  159.3006 C.ar    1  UNL1       -0.0044
     25 C         143.7181  142.9088  159.4909 C.ar    1  UNL1       -0.0018
     26 C         144.4041  142.3079  158.3000 C.ar    1  UNL1        0.0111
     27 C         143.8884  142.5844  156.9188 C.ar    1  UNL1        0.0577
     28 CL        144.5744  141.9834  155.7279 Cl      1  UNL1       -0.0822
     29 C         142.6869  143.4619  156.7285 C.ar    1  UNL1        0.0111
     30 C         142.0009  144.0629  157.9194 C.ar    1  UNL1       -0.0018
     31 C         140.5040  145.0682  160.3285 C.3     1  UNL1        0.0414
     32 C         139.8089  145.6521  161.5227 C.3     1  UNL1        0.0741
     33 N         139.1562  144.7487  162.5266 N.3     1  UNL1       -0.2726
     34 C         138.3620  143.5632  162.0641 C.3     1  UNL1        0.0721
     35 C         137.7093  142.6599  163.0680 C.3     1  UNL1        0.0174
     36 C         137.8508  142.9419  164.5345 C.3     1  UNL1        0.0029
     37 C         138.6451  144.1274  164.9970 C.3     1  UNL1        0.0174
     38 C         139.2978  145.0308  163.9930 C.3     1  UNL1        0.0721
@<TRIPOS>BOND
     1     5     6    1
     2     6     1    1
     3     1     2    2
     4     1     3   am
     5     3    23    1
     6    23    31    1
     7    31    32    1
     8    32    33    1
     9    33    34    1
    10    34    35    1
    11    35    36    1
    12    36    37    1
    13    37    38    1
    14    23    24    1
    15    24    25   ar
    16    25    26   ar
    17    26    27   ar
    18    27    28    1
    19    27    29   ar
    20    29    30   ar
    21     6     7    1
    22     7     8    1
    23     8     9    1
    24     9    14    1
    25    14    15    2
    26    15    16    1
    27    16    17    2
    28    17    18    1
    29    18    19    2
    30    19    20    1
    31    20    21    2
    32    21    22    1
    33     9    10    1
    34    10    11    1
    35    11     6    1
    36    38    33    1
    37    30    24   ar
    38    22    14    1
    39    22    18    1
    40     5    12    1
    41     5    13    1
    42     3     4    1
@<TRIPOS>MOLECULE
*****
 38 42 0 0 0
SMALL
GASTEIGER

@<TRIPOS>ATOM
      1 C         142.4452  140.1085  162.4954 C.2     1  UNL1        0.2352
      2 O         141.2208  140.8148  161.9935 O.2     1  UNL1       -0.2737
      3 N         143.6390  139.9496  161.6011 N.am    1  UNL1       -0.3011
      4 H         144.4426  139.4861  161.9305 H       1  UNL1        0.1497
      5 N         143.3203  138.5376  163.1919 N.3     1  UNL1       -0.3162
      6 C         142.4761  139.5611  163.8916 C.3     1  UNL1        0.1166
      7 C         141.6211  140.7748  164.1064 C.3     1  UNL1        0.0739
      8 C         141.0902  141.0855  165.4744 C.3     1  UNL1        0.2039
      9 N         141.4142  140.1826  166.6277 N.pl3   1  UNL1       -0.1931
     10 C         142.2691  138.9690  166.4129 C.3     1  UNL1        0.2039
     11 C         142.8000  138.6583  165.0448 C.3     1  UNL1        0.0739
     12 H         143.3962  138.7776  162.2034 H       1  UNL1        0.1192
     13 H         142.8883  137.6184  163.2864 H       1  UNL1        0.1192
     14 C         140.8832  140.4935  167.9957 C.2     1  UNL1        0.3205
     15 N         139.5588  139.9390  168.4300 N.2     1  UNL1        0.0097
     16 C         139.0279  140.2498  169.7979 C.2     1  UNL1        0.4717
     17 N         139.8213  141.1151  170.7317 N.2     1  UNL1        0.0158
     18 C         141.1457  141.6695  170.2974 C.2     1  UNL1        0.3714
     19 N         142.1444  142.5451  170.9945 N.2     1  UNL1       -0.0339
     20 C         143.2927  142.7754  170.0572 C.2     1  UNL1        0.2323
     21 C         143.0036  142.0422  168.7809 C.2     1  UNL1        0.0486
     22 C         141.6766  141.3587  168.9294 C.3     1  UNL1        0.2428
     23 C         143.6082  140.4971  160.2048 C.3     1  UNL1        0.0955
     24 C         143.3537  139.5803  159.0453 C.ar    1  UNL1       -0.0044
     25 C         142.8851  138.1762  159.2881 C.ar    1  UNL1       -0.0018
     26 C         142.6306  137.2594  158.1285 C.ar    1  UNL1        0.0111
     27 C         142.8447  137.7467  156.7261 C.ar    1  UNL1        0.0577
     28 CL        142.5902  136.8298  155.5665 Cl      1  UNL1       -0.0822
     29 C         143.3133  139.1507  156.4832 C.ar    1  UNL1        0.0111
     30 C         143.5678  140.0676  157.6429 C.ar    1  UNL1       -0.0018
     31 C         143.8320  141.9613  159.9683 C.3     1  UNL1        0.0414
     32 C         144.8462  142.7065  160.7845 C.3     1  UNL1        0.0741
     33 N         144.5948  142.9633  162.2408 N.3     1  UNL1       -0.2726
     34 C         143.5869  143.9929  162.6578 C.3     1  UNL1        0.0721
     35 C         143.3356  144.2496  164.1140 C.3     1  UNL1        0.0174
     36 C         144.0921  143.4767  165.1534 C.3     1  UNL1        0.0029
     37 C         145.1000  142.4470  164.7364 C.3     1  UNL1        0.0174
     38 C         145.3514  142.1903  163.2801 C.3     1  UNL1        0.0721
@<TRIPOS>BOND
     1     5     6    1
     2     6     1    1
     3     1     2    2
     4     1     3   am
     5     3    23    1
     6    23    31    1
     7    31    32    1
     8    32    33    1
     9    33    34    1
    10    34    35    1
    11    35    36    1
    12    36    37    1
    13    37    38    1
    14    23    24    1
    15    24    25   ar
    16    25    26   ar
    17    26    27   ar
    18    27    28    1
    19    27    29   ar
    20    29    30   ar
    21     6     7    1
    22     7     8    1
    23     8     9    1
    24     9    14    1
    25    14    15    2
    26    15    16    1
    27    16    17    2
    28    17    18    1
    29    18    19    2
    30    19    20    1
    31    20    21    2
    32    21    22    1
    33     9    10    1
    34    10    11    1
    35    11     6    1
    36    38    33    1
    37    30    24   ar
    38    22    14    1
    39    22    18    1
    40     5    12    1
    41     5    13    1
    42     3     4    1
@<TRIPOS>MOLECULE
*****
 38 42 0 0 0
SMALL
GASTEIGER

@<TRIPOS>ATOM
      1 C         142.7346  140.3772  162.6639 C.2     1  UNL1        0.2352
      2 O         141.4160  140.8981  162.1742 O.2     1  UNL1       -0.2737
      3 N         143.9035  140.2960  161.7274 N.am    1  UNL1       -0.3011
      4 H         144.7690  139.9541  162.0489 H       1  UNL1        0.1497
      5 N         143.2802  138.6740  163.3852 N.3     1  UNL1       -0.3162
      6 C         142.8844  139.9374  164.0901 C.3     1  UNL1        0.1166
      7 C         142.4365  141.3536  164.2998 C.3     1  UNL1        0.0739
      8 C         142.2760  141.8913  165.6908 C.3     1  UNL1        0.2039
      9 N         142.5632  141.0128  166.8724 N.pl3   1  UNL1       -0.1931
     10 C         143.0111  139.5967  166.6627 C.3     1  UNL1        0.2039
     11 C         143.1716  139.0590  165.2716 C.3     1  UNL1        0.0739
     12 H         143.2277  138.8167  162.3766 H       1  UNL1        0.1192
     13 H         142.6473  137.9212  163.6555 H       1  UNL1        0.1192
     14 C         142.4026  141.5505  168.2634 C.2     1  UNL1        0.3205
     15 N         143.4800  142.4016  168.8676 N.2     1  UNL1        0.0097
     16 C         143.3194  142.9393  170.2586 C.2     1  UNL1        0.4717
     17 N         142.0814  142.6259  171.0456 N.2     1  UNL1        0.0158
     18 C         141.0041  141.7749  170.4414 C.2     1  UNL1        0.3714
     19 N         139.6831  141.3017  170.9717 N.2     1  UNL1       -0.0339
     20 C         139.0273  140.4716  169.9084 C.2     1  UNL1        0.2323
     21 C         139.9430  140.4317  168.7209 C.2     1  UNL1        0.0486
     22 C         141.1647  141.2372  169.0504 C.3     1  UNL1        0.2428
     23 C         143.7538  140.7357  160.3011 C.3     1  UNL1        0.0955
     24 C         143.1531  139.8061  159.2888 C.ar    1  UNL1       -0.0044
     25 C         143.2070  138.3230  159.5074 C.ar    1  UNL1       -0.0018
     26 C         142.6063  137.3933  158.4951 C.ar    1  UNL1        0.0111
     27 C         141.9516  137.9467  157.2642 C.ar    1  UNL1        0.0577
     28 CL        141.3509  137.0170  156.2518 Cl      1  UNL1       -0.0822
     29 C         141.8977  139.4297  157.0455 C.ar    1  UNL1        0.0111
     30 C         142.4984  140.3594  158.0579 C.ar    1  UNL1       -0.0018
     31 C         144.2049  142.1051  159.8872 C.3     1  UNL1        0.0414
     32 C         143.2614  143.2672  159.9859 C.3     1  UNL1        0.0741
     33 N         143.0130  143.9209  161.3130 N.3     1  UNL1       -0.2726
     34 C         144.1248  144.0332  162.3136 C.3     1  UNL1        0.0721
     35 C         143.8763  144.6868  163.6405 C.3     1  UNL1        0.0174
     36 C         142.5159  145.2282  163.9669 C.3     1  UNL1        0.0029
     37 C         141.4042  145.1159  162.9662 C.3     1  UNL1        0.0174
     38 C         141.6527  144.4622  161.6392 C.3     1  UNL1        0.0721
@<TRIPOS>BOND
     1     5     6    1
     2     6     1    1
     3     1     2    2
     4     1     3   am
     5     3    23    1
     6    23    31    1
     7    31    32    1
     8    32    33    1
     9    33    34    1
    10    34    35    1
    11    35    36    1
    12    36    37    1
    13    37    38    1
    14    23    24    1
    15    24    25   ar
    16    25    26   ar
    17    26    27   ar
    18    27    28    1
    19    27    29   ar
    20    29    30   ar
    21     6     7    1
    22     7     8    1
    23     8     9    1
    24     9    14    1
    25    14    15    2
    26    15    16    1
    27    16    17    2
    28    17    18    1
    29    18    19    2
    30    19    20    1
    31    20    21    2
    32    21    22    1
    33     9    10    1
    34    10    11    1
    35    11     6    1
    36    38    33    1
    37    30    24   ar
    38    22    14    1
    39    22    18    1
    40     5    12    1
    41     5    13    1
    42     3     4    1
@<TRIPOS>MOLECULE
*****
 38 42 0 0 0
SMALL
GASTEIGER

@<TRIPOS>ATOM
      1 C         141.6056  140.5860  162.4739 C.2     1  UNL1        0.2352
      2 O         140.4871  140.0916  161.6053 O.2     1  UNL1       -0.2737
      3 N         142.5097  141.6779  161.9835 N.am    1  UNL1       -0.3011
      4 H         143.2438  142.0024  162.5536 H       1  UNL1        0.1497
      5 N         142.6868  139.0821  163.0105 N.3     1  UNL1       -0.3162
      6 C         141.8201  139.9887  163.8330 C.3     1  UNL1        0.1166
      7 C         140.8788  141.1029  164.1837 C.3     1  UNL1        0.0739
      8 C         140.4531  141.3048  165.6077 C.3     1  UNL1        0.2039
      9 N         140.9686  140.3926  166.6812 N.pl3   1  UNL1       -0.1931
     10 C         141.9098  139.2785  166.3306 C.3     1  UNL1        0.2039
     11 C         142.3355  139.0766  164.9065 C.3     1  UNL1        0.0739
     12 H         142.6457  139.3679  162.0322 H       1  UNL1        0.1192
     13 H         142.3542  138.1219  163.0984 H       1  UNL1        0.1192
     14 C         140.5428  140.5946  168.1053 C.2     1  UNL1        0.3205
     15 N         139.2727  139.9715  168.6039 N.2     1  UNL1        0.0097
     16 C         138.8470  140.1734  170.0279 C.2     1  UNL1        0.4717
     17 N         139.6912  140.9985  170.9534 N.2     1  UNL1        0.0158
     18 C         140.9613  141.6216  170.4547 C.2     1  UNL1        0.3714
     19 N         141.9907  142.4792  171.1292 N.2     1  UNL1       -0.0339
     20 C         143.0527  142.8073  170.1220 C.2     1  UNL1        0.2323
     21 C         142.6797  142.1524  168.8250 C.2     1  UNL1        0.0486
     22 C         141.3871  141.4197  169.0307 C.3     1  UNL1        0.2428
     23 C         142.2953  142.2753  160.6243 C.3     1  UNL1        0.0955
     24 C         143.1075  141.7961  159.4579 C.ar    1  UNL1       -0.0044
     25 C         144.2377  142.6333  158.9365 C.ar    1  UNL1       -0.0018
     26 C         145.0499  142.1542  157.7700 C.ar    1  UNL1        0.0111
     27 C         144.7319  140.8378  157.1249 C.ar    1  UNL1        0.0577
     28 CL        145.5442  140.3587  155.9584 Cl      1  UNL1       -0.0822
     29 C         143.6018  140.0006  157.6463 C.ar    1  UNL1        0.0111
     30 C         142.7895  140.4797  158.8128 C.ar    1  UNL1       -0.0018
     31 C         141.2686  143.3518  160.4318 C.3     1  UNL1        0.0414
     32 C         141.0821  144.4067  161.4817 C.3     1  UNL1        0.0741
     33 N         140.0156  144.2468  162.5243 N.3     1  UNL1       -0.2726
     34 C         140.1898  144.8707  163.8773 C.3     1  UNL1        0.0721
     35 C         139.1233  144.7107  164.9198 C.3     1  UNL1        0.0174
     36 C         137.8825  143.9269  164.6094 C.3     1  UNL1        0.0029
     37 C         137.7083  143.3031  163.2565 C.3     1  UNL1        0.0174
     38 C         138.7749  143.4631  162.2139 C.3     1  UNL1        0.0721
@<TRIPOS>BOND
     1     5     6    1
     2     6     1    1
     3     1     2    2
     4     1     3   am
     5     3    23    1
     6    23    31    1
     7    31    32    1
     8    32    33    1
     9    33    34    1
    10    34    35    1
    11    35    36    1
    12    36    37    1
    13    37    38    1
    14    23    24    1
    15    24    25   ar
    16    25    26   ar
    17    26    27   ar
    18    27    28    1
    19    27    29   ar
    20    29    30   ar
    21     6     7    1
    22     7     8    1
    23     8     9    1
    24     9    14    1
    25    14    15    2
    26    15    16    1
    27    16    17    2
    28    17    18    1
    29    18    19    2
    30    19    20    1
    31    20    21    2
    32    21    22    1
    33     9    10    1
    34    10    11    1
    35    11     6    1
    36    38    33    1
    37    30    24   ar
    38    22    14    1
    39    22    18    1
    40     5    12    1
    41     5    13    1
    42     3     4    1
@<TRIPOS>MOLECULE
*****
 38 42 0 0 0
SMALL
GASTEIGER

@<TRIPOS>ATOM
      1 C         140.5314  138.5199  162.0416 C.2     1  UNL1        0.2352
      2 O         139.3533  137.6899  161.6255 O.2     1  UNL1       -0.2737
      3 N         141.1340  139.5015  161.0807 N.am    1  UNL1       -0.3011
      4 H         141.9073  140.0463  161.3538 H       1  UNL1        0.1497
      5 N         141.3562  136.9913  162.8791 N.3     1  UNL1       -0.3162
      6 C         141.1069  138.3685  163.4185 C.3     1  UNL1        0.1166
      7 C         140.6576  139.7984  163.4797 C.3     1  UNL1        0.0739
      8 C         140.8705  140.5985  164.7304 C.3     1  UNL1        0.2039
      9 N         141.5326  139.9687  165.9201 N.pl3   1  UNL1       -0.1931
     10 C         141.9818  138.5389  165.8589 C.3     1  UNL1        0.2039
     11 C         141.7689  137.7388  164.6080 C.3     1  UNL1        0.0739
     12 H         141.0099  136.9333  161.9214 H       1  UNL1        0.1192
     13 H         140.8707  136.3062  163.4582 H       1  UNL1        0.1192
     14 C         141.7455  140.7689  167.1709 C.2     1  UNL1        0.3205
     15 N         142.9714  141.6208  167.3167 N.2     1  UNL1        0.0097
     16 C         143.1843  142.4209  168.5674 C.2     1  UNL1        0.4717
     17 N         142.1712  142.3692  169.6724 N.2     1  UNL1        0.0158
     18 C         140.9453  141.5173  169.5266 C.2     1  UNL1        0.3714
     19 N         139.7816  141.2684  170.4398 N.2     1  UNL1       -0.0339
     20 C         138.8496  140.3143  169.7534 C.2     1  UNL1        0.2323
     21 C         139.4372  139.9736  168.4160 C.2     1  UNL1        0.0486
     22 C         140.7324  140.7171  168.2758 C.3     1  UNL1        0.2428
     23 C         140.5586  139.6531  159.7038 C.3     1  UNL1        0.0955
     24 C         140.9098  138.6650  158.6312 C.ar    1  UNL1       -0.0044
     25 C         139.8815  138.2633  157.6157 C.ar    1  UNL1       -0.0018
     26 C         140.2327  137.2752  156.5432 C.ar    1  UNL1        0.0111
     27 C         141.6122  136.6889  156.4862 C.ar    1  UNL1        0.0577
     28 CL        141.9633  135.7008  155.4136 Cl      1  UNL1       -0.0822
     29 C         142.6404  137.0906  157.5016 C.ar    1  UNL1        0.0111
     30 C         142.2893  138.0787  158.5742 C.ar    1  UNL1       -0.0018
     31 C         139.6319  140.7927  159.3994 C.3     1  UNL1        0.0414
     32 C         139.7909  142.1006  160.1165 C.3     1  UNL1        0.0741
     33 N         139.1178  142.3172  161.4395 N.3     1  UNL1       -0.2726
     34 C         137.9377  141.4764  161.8272 C.3     1  UNL1        0.0721
     35 C         137.2647  141.6931  163.1500 C.3     1  UNL1        0.0174
     36 C         137.7719  142.7505  164.0853 C.3     1  UNL1        0.0029
     37 C         138.9521  143.5912  163.6976 C.3     1  UNL1        0.0174
     38 C         139.6251  143.3746  162.3747 C.3     1  UNL1        0.0721
@<TRIPOS>BOND
     1     5     6    1
     2     6     1    1
     3     1     2    2
     4     1     3   am
     5     3    23    1
     6    23    31    1
     7    31    32    1
     8    32    33    1
     9    33    34    1
    10    34    35    1
    11    35    36    1
    12    36    37    1
    13    37    38    1
    14    23    24    1
    15    24    25   ar
    16    25    26   ar
    17    26    27   ar
    18    27    28    1
    19    27    29   ar
    20    29    30   ar
    21     6     7    1
    22     7     8    1
    23     8     9    1
    24     9    14    1
    25    14    15    2
    26    15    16    1
    27    16    17    2
    28    17    18    1
    29    18    19    2
    30    19    20    1
    31    20    21    2
    32    21    22    1
    33     9    10    1
    34    10    11    1
    35    11     6    1
    36    38    33    1
    37    30    24   ar
    38    22    14    1
    39    22    18    1
    40     5    12    1
    41     5    13    1
    42     3     4    1
@<TRIPOS>MOLECULE
*****
 38 42 0 0 0
SMALL
GASTEIGER

@<TRIPOS>ATOM
      1 C         141.4067  142.2322  163.0943 C.2     1  UNL1        0.2352
      2 O         141.8165  141.2977  161.9948 O.2     1  UNL1       -0.2737
      3 N         140.1508  143.0415  162.9617 N.am    1  UNL1       -0.3011
      4 H         139.8818  143.6548  163.6833 H       1  UNL1        0.1497
      5 N         143.1343  143.0549  163.3333 N.3     1  UNL1       -0.3162
      6 C         142.2529  142.3573  164.3265 C.3     1  UNL1        0.1166
      7 C         141.0775  141.6163  164.8918 C.3     1  UNL1        0.0739
      8 C         141.0545  141.2427  166.3442 C.3     1  UNL1        0.2039
      9 N         142.2068  141.6101  167.2316 N.pl3   1  UNL1       -0.1931
     10 C         143.3821  142.3511  166.6664 C.3     1  UNL1        0.2039
     11 C         143.4051  142.7247  165.2138 C.3     1  UNL1        0.0739
     12 H         142.6837  143.0527  162.4183 H       1  UNL1        0.1192
     13 H         144.0292  142.5691  163.2728 H       1  UNL1        0.1192
     14 C         142.1837  141.2365  168.6841 C.2     1  UNL1        0.3205
     15 N         143.0679  140.1352  169.1894 N.2     1  UNL1        0.0097
     16 C         143.0448  139.7615  170.6419 C.2     1  UNL1        0.4717
     17 N         142.1375  140.4892  171.5892 N.2     1  UNL1        0.0158
     18 C         141.2533  141.5905  171.0839 C.2     1  UNL1        0.3714
     19 N         140.2625  142.4793  171.7755 N.2     1  UNL1       -0.0339
     20 C         139.6733  143.4023  170.7504 C.2     1  UNL1        0.2323
     21 C         140.2999  143.0839  169.4253 C.2     1  UNL1        0.0486
     22 C         141.2764  141.9641  169.6314 C.3     1  UNL1        0.2428
     23 C         139.3045  142.9163  161.7295 C.3     1  UNL1        0.0955
     24 C         139.7293  143.5868  160.4567 C.ar    1  UNL1       -0.0044
     25 C         139.2163  143.0873  159.1385 C.ar    1  UNL1       -0.0018
     26 C         139.6410  143.7577  157.8657 C.ar    1  UNL1        0.0111
     27 C         140.5788  144.9276  157.9111 C.ar    1  UNL1        0.0577
     28 CL        141.0035  145.5981  156.6382 Cl      1  UNL1       -0.0822
     29 C         141.0917  145.4271  159.2291 C.ar    1  UNL1        0.0111
     30 C         140.6670  144.7567  160.5020 C.ar    1  UNL1       -0.0018
     31 C         138.0335  142.1207  161.7702 C.3     1  UNL1        0.0414
     32 C         138.0831  140.6235  161.6923 C.3     1  UNL1        0.0741
     33 N         138.4106  139.8194  162.9155 N.3     1  UNL1       -0.2726
     34 C         139.2873  138.6075  162.8039 C.3     1  UNL1        0.0721
     35 C         139.6147  137.8035  164.0270 C.3     1  UNL1        0.0174
     36 C         139.0654  138.2113  165.3619 C.3     1  UNL1        0.0029
     37 C         138.1886  139.4232  165.4736 C.3     1  UNL1        0.0174
     38 C         137.8612  140.2273  164.2504 C.3     1  UNL1        0.0721
@<TRIPOS>BOND
     1     5     6    1
     2     6     1    1
     3     1     2    2
     4     1     3   am
     5     3    23    1
     6    23    31    1
     7    31    32    1
     8    32    33    1
     9    33    34    1
    10    34    35    1
    11    35    36    1
    12    36    37    1
    13    37    38    1
    14    23    24    1
    15    24    25   ar
    16    25    26   ar
    17    26    27   ar
    18    27    28    1
    19    27    29   ar
    20    29    30   ar
    21     6     7    1
    22     7     8    1
    23     8     9    1
    24     9    14    1
    25    14    15    2
    26    15    16    1
    27    16    17    2
    28    17    18    1
    29    18    19    2
    30    19    20    1
    31    20    21    2
    32    21    22    1
    33     9    10    1
    34    10    11    1
    35    11     6    1
    36    38    33    1
    37    30    24   ar
    38    22    14    1
    39    22    18    1
    40     5    12    1
    41     5    13    1
    42     3     4    1
