@<TRIPOS>MOLECULE
*****
 34 38 0 0 0
SMALL
GASTEIGER

@<TRIPOS>ATOM
      1 N         141.0872  143.2141  161.4777 N.am    1  UNL1       -0.2874
      2 C         141.8156  143.3071  160.1697 C.2     1  UNL1        0.3040
      3 O         142.1750  144.6496  159.6052 O.2     1  UNL1       -0.2526
      4 N         142.1844  142.0577  159.4262 N.am    1  UNL1       -0.2642
      5 C         142.9128  142.1507  158.1182 C.3     1  UNL1        0.0954
      6 C         143.2817  140.9013  157.3747 C.3     1  UNL1        0.0309
      7 C         142.9222  139.5588  157.9392 C.3     1  UNL1        0.0827
      8 C         142.1939  139.4658  159.2472 C.3     1  UNL1        0.0309
      9 C         141.8250  140.7152  159.9907 C.3     1  UNL1        0.0954
     10 H         140.8513  142.3330  161.8482 H       1  UNL1        0.1510
     11 C         143.2911  138.3094  157.1957 C.ar    1  UNL1        0.2362
     12 N         142.7906  136.9267  157.4921 N.ar    1  UNL1       -0.1895
     13 C         143.4155  135.9861  156.5048 C.ar    1  UNL1        0.2210
     14 N         144.3022  136.7873  155.5983 N.ar    1  UNL1       -0.0544
     15 O         144.2253  138.2232  156.0253 O.2     1  UNL1       -0.3370
     16 C         143.1927  134.5042  156.4361 C.ar    1  UNL1        0.1202
     17 C         142.0599  133.9531  155.6219 C.ar    1  UNL1        0.0224
     18 C         141.8371  132.4713  155.5532 C.ar    1  UNL1        0.0031
     19 C         142.7471  131.5407  156.2988 C.ar    1  UNL1        0.0177
     20 C         142.5243  130.0589  156.2301 C.ar    1  UNL1        0.0015
     21 C         143.4343  129.1283  156.9756 C.ar    1  UNL1        0.0001
     22 C         144.5672  129.6795  157.7898 C.ar    1  UNL1        0.0015
     23 C         144.7900  131.1612  157.8585 C.ar    1  UNL1        0.0191
     24 C         143.8799  132.0918  157.1130 C.ar    1  UNL1        0.0814
     25 N         144.1027  133.5737  157.1816 N.ar    1  UNL1       -0.2422
     26 C         140.7183  144.4635  162.2213 C.3     1  UNL1        0.1054
     27 C         139.9396  144.3730  163.5001 C.3     1  UNL1        0.0635
     28 C         139.4445  144.2744  164.9126 C.3     1  UNL1        0.0164
     29 C         137.9449  144.2709  164.8790 C.3     1  UNL1        0.0014
     30 C         137.5132  144.3673  163.4456 C.3     1  UNL1        0.0014
     31 C         138.7460  144.4304  162.5935 C.3     1  UNL1        0.0164
     32 C         142.2979  145.4095  163.8382 C.3     1  UNL1        0.0896
     33 N         141.2960  144.3345  164.1394 N.3     1  UNL1       -0.2712
     34 C         141.6506  143.2211  165.0799 C.3     1  UNL1        0.0896
@<TRIPOS>BOND
     1    32    33    1
     2    33    34    1
     3    33    27    1
     4    27    26    1
     5    26     1    1
     6     1     2   am
     7     2     3    2
     8     2     4   am
     9     4     5    1
    10     5     6    1
    11     6     7    1
    12     7    11    1
    13    11    12   ar
    14    12    13   ar
    15    13    16    1
    16    16    17   ar
    17    17    18   ar
    18    18    19   ar
    19    19    20   ar
    20    20    21   ar
    21    21    22   ar
    22    22    23   ar
    23    23    24   ar
    24    24    25   ar
    25    13    14   ar
    26    14    15   ar
    27     7     8    1
    28     8     9    1
    29    27    28    1
    30    28    29    1
    31    29    30    1
    32    30    31    1
    33    31    27    1
    34     9     4    1
    35    15    11   ar
    36    25    16   ar
    37    24    19   ar
    38     1    10    1
@<TRIPOS>MOLECULE
*****
 34 38 0 0 0
SMALL
GASTEIGER

@<TRIPOS>ATOM
      1 N         141.9741  141.3744  165.9150 N.am    1  UNL1       -0.2874
      2 C         143.0479  141.7362  164.9322 C.2     1  UNL1        0.3040
      3 O         144.0884  142.7526  165.2985 O.2     1  UNL1       -0.2526
      4 N         143.0813  141.0814  163.5831 N.am    1  UNL1       -0.2642
      5 C         144.1551  141.4432  162.6002 C.3     1  UNL1        0.0954
      6 C         144.1885  140.7885  161.2511 C.3     1  UNL1        0.0309
      7 C         143.1480  139.7720  160.8848 C.3     1  UNL1        0.0827
      8 C         142.0742  139.4102  161.8676 C.3     1  UNL1        0.0309
      9 C         142.0408  140.0650  163.2167 C.3     1  UNL1        0.0954
     10 H         141.2912  140.7072  165.6746 H       1  UNL1        0.1510
     11 C         143.1814  139.1173  159.5357 C.ar    1  UNL1        0.2362
     12 N         142.6367  137.7604  159.2003 N.ar    1  UNL1       -0.1895
     13 C         142.8840  137.5091  157.7424 C.ar    1  UNL1        0.2210
     14 N         143.5815  138.7104  157.1766 N.ar    1  UNL1       -0.0544
     15 O         143.7653  139.7044  158.2849 O.2     1  UNL1       -0.3370
     16 C         142.5010  136.2731  156.9834 C.ar    1  UNL1        0.1202
     17 C         141.5420  136.3660  155.8338 C.ar    1  UNL1        0.0224
     18 C         141.1590  135.1302  155.0748 C.ar    1  UNL1        0.0031
     19 C         141.7349  133.8014  155.4656 C.ar    1  UNL1        0.0177
     20 C         141.3519  132.5656  154.7067 C.ar    1  UNL1        0.0015
     21 C         141.9278  131.2369  155.0974 C.ar    1  UNL1        0.0001
     22 C         142.8868  131.1440  156.2471 C.ar    1  UNL1        0.0015
     23 C         143.2698  132.3798  157.0060 C.ar    1  UNL1        0.0191
     24 C         142.6939  133.7085  156.6152 C.ar    1  UNL1        0.0814
     25 N         143.0769  134.9444  157.3742 N.ar    1  UNL1       -0.2422
     26 C         141.9407  142.0291  167.2643 C.3     1  UNL1        0.1054
     27 C         140.9911  141.5343  168.3147 C.3     1  UNL1        0.0635
     28 C         140.2020  141.2316  169.5540 C.3     1  UNL1        0.0164
     29 C         139.1451  140.2289  169.1971 C.3     1  UNL1        0.0014
     30 C         139.2810  139.9118  167.7373 C.3     1  UNL1        0.0014
     31 C         140.4219  140.7186  167.1919 C.3     1  UNL1        0.0164
     32 C         141.0436  143.5377  169.9682 C.3     1  UNL1        0.0896
     33 N         141.7589  142.4535  169.2178 N.3     1  UNL1       -0.2712
     34 C         143.2419  142.2884  169.3707 C.3     1  UNL1        0.0896
@<TRIPOS>BOND
     1    32    33    1
     2    33    34    1
     3    33    27    1
     4    27    26    1
     5    26     1    1
     6     1     2   am
     7     2     3    2
     8     2     4   am
     9     4     5    1
    10     5     6    1
    11     6     7    1
    12     7    11    1
    13    11    12   ar
    14    12    13   ar
    15    13    16    1
    16    16    17   ar
    17    17    18   ar
    18    18    19   ar
    19    19    20   ar
    20    20    21   ar
    21    21    22   ar
    22    22    23   ar
    23    23    24   ar
    24    24    25   ar
    25    13    14   ar
    26    14    15   ar
    27     7     8    1
    28     8     9    1
    29    27    28    1
    30    28    29    1
    31    29    30    1
    32    30    31    1
    33    31    27    1
    34     9     4    1
    35    15    11   ar
    36    25    16   ar
    37    24    19   ar
    38     1    10    1
@<TRIPOS>MOLECULE
*****
 34 38 0 0 0
SMALL
GASTEIGER

@<TRIPOS>ATOM
      1 N         139.8266  140.8480  163.2573 N.am    1  UNL1       -0.2874
      2 C         141.0856  141.2484  162.5470 C.2     1  UNL1        0.3040
      3 O         141.8620  142.4441  163.0133 O.2     1  UNL1       -0.2526
      4 N         141.5682  140.4532  161.3703 N.am    1  UNL1       -0.2642
      5 C         142.8272  140.8536  160.6599 C.3     1  UNL1        0.0954
      6 C         143.3097  140.0583  159.4833 C.3     1  UNL1        0.0309
      7 C         142.5333  138.8626  159.0169 C.3     1  UNL1        0.0827
      8 C         141.2743  138.4622  159.7272 C.3     1  UNL1        0.0309
      9 C         140.7917  139.2574  160.9039 C.3     1  UNL1        0.0954
     10 H         139.3170  140.0632  162.9512 H       1  UNL1        0.1510
     11 C         143.0159  138.0673  157.8402 C.ar    1  UNL1        0.2362
     12 N         142.6888  136.6320  157.5521 N.ar    1  UNL1       -0.1895
     13 C         143.3811  136.2454  156.2788 C.ar    1  UNL1        0.2210
     14 N         144.1360  137.4416  155.7799 N.ar    1  UNL1       -0.0544
     15 O         143.9103  138.5677  156.7449 O.2     1  UNL1       -0.3370
     16 C         143.3277  134.8987  155.6201 C.ar    1  UNL1        0.1202
     17 C         142.4853  134.6956  154.3957 C.ar    1  UNL1        0.0224
     18 C         142.4320  133.3491  153.7370 C.ar    1  UNL1        0.0031
     19 C         143.2210  132.2056  154.3027 C.ar    1  UNL1        0.0177
     20 C         143.1676  130.8591  153.6440 C.ar    1  UNL1        0.0015
     21 C         143.9566  129.7156  154.2096 C.ar    1  UNL1        0.0001
     22 C         144.7989  129.9188  155.4341 C.ar    1  UNL1        0.0015
     23 C         144.8523  131.2653  156.0928 C.ar    1  UNL1        0.0191
     24 C         144.0633  132.4087  155.5271 C.ar    1  UNL1        0.0814
     25 N         144.1167  133.7553  156.1858 N.ar    1  UNL1       -0.2422
     26 C         139.3440  141.6433  164.4340 C.3     1  UNL1        0.1054
     27 C         139.4059  141.0556  165.8127 C.3     1  UNL1        0.0635
     28 C         139.6656  140.7046  167.2478 C.3     1  UNL1        0.0164
     29 C         138.8674  139.4780  167.5767 C.3     1  UNL1        0.0014
     30 C         138.1144  139.0708  166.3449 C.3     1  UNL1        0.0014
     31 C         138.4472  140.0458  165.2547 C.3     1  UNL1        0.0164
     32 C         139.9018  143.6050  165.8815 C.3     1  UNL1        0.0896
     33 N         140.3516  142.1882  166.0825 N.3     1  UNL1       -0.2712
     34 C         141.7472  141.9041  166.5531 C.3     1  UNL1        0.0896
@<TRIPOS>BOND
     1    32    33    1
     2    33    34    1
     3    33    27    1
     4    27    26    1
     5    26     1    1
     6     1     2   am
     7     2     3    2
     8     2     4   am
     9     4     5    1
    10     5     6    1
    11     6     7    1
    12     7    11    1
    13    11    12   ar
    14    12    13   ar
    15    13    16    1
    16    16    17   ar
    17    17    18   ar
    18    18    19   ar
    19    19    20   ar
    20    20    21   ar
    21    21    22   ar
    22    22    23   ar
    23    23    24   ar
    24    24    25   ar
    25    13    14   ar
    26    14    15   ar
    27     7     8    1
    28     8     9    1
    29    27    28    1
    30    28    29    1
    31    29    30    1
    32    30    31    1
    33    31    27    1
    34     9     4    1
    35    15    11   ar
    36    25    16   ar
    37    24    19   ar
    38     1    10    1
@<TRIPOS>MOLECULE
*****
 34 38 0 0 0
SMALL
GASTEIGER

@<TRIPOS>ATOM
      1 N         140.2935  140.4987  163.7965 N.am    1  UNL1       -0.2874
      2 C         141.5884  139.7636  163.6151 C.2     1  UNL1        0.3040
      3 O         142.5436  139.6323  164.7642 O.2     1  UNL1       -0.2526
      4 N         141.9281  139.1599  162.2847 N.am    1  UNL1       -0.2642
      5 C         143.2230  138.4248  162.1033 C.3     1  UNL1        0.0954
      6 C         143.5627  137.8210  160.7729 C.3     1  UNL1        0.0309
      7 C         142.6075  137.9524  159.6238 C.3     1  UNL1        0.0827
      8 C         141.3126  138.6874  159.8052 C.3     1  UNL1        0.0309
      9 C         140.9729  139.2912  161.1356 C.3     1  UNL1        0.0954
     10 H         139.6666  140.5849  163.0423 H       1  UNL1        0.1510
     11 C         142.9472  137.3486  158.2934 C.ar    1  UNL1        0.2362
     12 N         142.7783  135.9083  157.9098 N.ar    1  UNL1       -0.1895
     13 C         143.2422  135.7488  156.4923 C.ar    1  UNL1        0.2210
     14 N         143.6977  137.0904  155.9998 N.ar    1  UNL1       -0.0544
     15 O         143.5154  138.0791  157.1129 O.2     1  UNL1       -0.3370
     16 C         143.2492  134.4717  155.7054 C.ar    1  UNL1        0.1202
     17 C         142.4515  134.3663  154.4395 C.ar    1  UNL1        0.0224
     18 C         142.4585  133.0893  153.6527 C.ar    1  UNL1        0.0031
     19 C         143.2633  131.9176  154.1317 C.ar    1  UNL1        0.0177
     20 C         143.2704  130.6406  153.3448 C.ar    1  UNL1        0.0015
     21 C         144.0752  129.4690  153.8239 C.ar    1  UNL1        0.0001
     22 C         144.8730  129.5743  155.0897 C.ar    1  UNL1        0.0015
     23 C         144.8659  130.8513  155.8766 C.ar    1  UNL1        0.0191
     24 C         144.0611  132.0229  155.3976 C.ar    1  UNL1        0.0814
     25 N         144.0540  133.3000  156.1844 N.ar    1  UNL1       -0.2422
     26 C         139.9537  141.1025  165.1270 C.3     1  UNL1        0.1054
     27 C         139.6748  142.5724  165.2343 C.3     1  UNL1        0.0635
     28 C         139.6847  144.0548  165.4632 C.3     1  UNL1        0.0164
     29 C         138.3679  144.6041  165.0002 C.3     1  UNL1        0.0014
     30 C         137.5442  143.4611  164.4851 C.3     1  UNL1        0.0014
     31 C         138.3519  142.2055  164.6297 C.3     1  UNL1        0.0164
     32 C         141.3123  142.1005  167.1954 C.3     1  UNL1        0.0896
     33 N         141.0560  142.6320  165.8163 N.3     1  UNL1       -0.2712
     34 C         142.1809  143.2231  165.0193 C.3     1  UNL1        0.0896
@<TRIPOS>BOND
     1    32    33    1
     2    33    34    1
     3    33    27    1
     4    27    26    1
     5    26     1    1
     6     1     2   am
     7     2     3    2
     8     2     4   am
     9     4     5    1
    10     5     6    1
    11     6     7    1
    12     7    11    1
    13    11    12   ar
    14    12    13   ar
    15    13    16    1
    16    16    17   ar
    17    17    18   ar
    18    18    19   ar
    19    19    20   ar
    20    20    21   ar
    21    21    22   ar
    22    22    23   ar
    23    23    24   ar
    24    24    25   ar
    25    13    14   ar
    26    14    15   ar
    27     7     8    1
    28     8     9    1
    29    27    28    1
    30    28    29    1
    31    29    30    1
    32    30    31    1
    33    31    27    1
    34     9     4    1
    35    15    11   ar
    36    25    16   ar
    37    24    19   ar
    38     1    10    1
@<TRIPOS>MOLECULE
*****
 34 38 0 0 0
SMALL
GASTEIGER

@<TRIPOS>ATOM
      1 N         142.7706  135.3604  157.1864 N.am    1  UNL1       -0.2874
      2 C         142.7182  136.8481  157.0020 C.2     1  UNL1        0.3040
      3 O         142.5193  137.4277  155.6328 O.2     1  UNL1       -0.2526
      4 N         142.8647  137.7562  158.1868 N.am    1  UNL1       -0.2642
      5 C         142.8123  139.2439  158.0025 C.3     1  UNL1        0.0954
      6 C         142.9588  140.1521  159.1873 C.3     1  UNL1        0.0309
      7 C         143.1577  139.5725  160.5564 C.3     1  UNL1        0.0827
      8 C         143.2100  138.0848  160.7408 C.3     1  UNL1        0.0309
      9 C         143.0636  137.1767  159.5560 C.3     1  UNL1        0.0954
     10 H         142.9011  134.9800  158.0850 H       1  UNL1        0.1510
     11 C         143.3041  140.4806  161.7412 C.ar    1  UNL1        0.2362
     12 N         142.3799  140.5470  162.9210 N.ar    1  UNL1       -0.1895
     13 C         142.9052  141.5893  163.8632 C.ar    1  UNL1        0.2210
     14 N         144.1540  142.1671  163.2659 N.ar    1  UNL1       -0.0544
     15 O         144.4005  141.4820  161.9545 O.2     1  UNL1       -0.3370
     16 C         142.2897  141.9843  165.1728 C.ar    1  UNL1        0.1202
     17 C         140.8520  142.4085  165.2282 C.ar    1  UNL1        0.0224
     18 C         140.2365  142.8036  166.5377 C.ar    1  UNL1        0.0031
     19 C         141.0587  142.7745  167.7920 C.ar    1  UNL1        0.0177
     20 C         140.4431  143.1695  169.1016 C.ar    1  UNL1        0.0015
     21 C         141.2653  143.1404  170.3558 C.ar    1  UNL1        0.0001
     22 C         142.7030  142.7162  170.3005 C.ar    1  UNL1        0.0015
     23 C         143.3185  142.3211  168.9909 C.ar    1  UNL1        0.0191
     24 C         142.4964  142.3503  167.7367 C.ar    1  UNL1        0.0814
     25 N         143.1119  141.9552  166.4270 N.ar    1  UNL1       -0.2422
     26 C         142.6241  134.4522  156.0015 C.3     1  UNL1        0.1054
     27 C         143.4618  133.2122  155.8989 C.3     1  UNL1        0.0635
     28 C         144.1753  131.9516  155.5092 C.3     1  UNL1        0.0164
     29 C         145.0357  131.5301  156.6634 C.3     1  UNL1        0.0014
     30 C         144.8539  132.5302  157.7665 C.3     1  UNL1        0.0014
     31 C         143.8812  133.5698  157.2940 C.3     1  UNL1        0.0164
     32 C         142.0765  134.2594  153.9665 C.3     1  UNL1        0.0896
     33 N         142.8673  133.1138  154.5253 N.3     1  UNL1       -0.2712
     34 C         143.0637  131.8699  153.7104 C.3     1  UNL1        0.0896
@<TRIPOS>BOND
     1    32    33    1
     2    33    34    1
     3    33    27    1
     4    27    26    1
     5    26     1    1
     6     1     2   am
     7     2     3    2
     8     2     4   am
     9     4     5    1
    10     5     6    1
    11     6     7    1
    12     7    11    1
    13    11    12   ar
    14    12    13   ar
    15    13    16    1
    16    16    17   ar
    17    17    18   ar
    18    18    19   ar
    19    19    20   ar
    20    20    21   ar
    21    21    22   ar
    22    22    23   ar
    23    23    24   ar
    24    24    25   ar
    25    13    14   ar
    26    14    15   ar
    27     7     8    1
    28     8     9    1
    29    27    28    1
    30    28    29    1
    31    29    30    1
    32    30    31    1
    33    31    27    1
    34     9     4    1
    35    15    11   ar
    36    25    16   ar
    37    24    19   ar
    38     1    10    1
@<TRIPOS>MOLECULE
*****
 34 38 0 0 0
SMALL
GASTEIGER

@<TRIPOS>ATOM
      1 N         141.3620  142.0869  166.1873 N.am    1  UNL1       -0.2874
      2 C         142.2814  142.7471  165.2030 C.2     1  UNL1        0.3040
      3 O         143.6803  143.1068  165.6080 O.2     1  UNL1       -0.2526
      4 N         141.8021  143.0477  163.8139 N.am    1  UNL1       -0.2642
      5 C         142.7215  143.7079  162.8297 C.3     1  UNL1        0.0954
      6 C         142.2422  144.0085  161.4405 C.3     1  UNL1        0.0309
      7 C         140.8433  143.6489  161.0355 C.3     1  UNL1        0.0827
      8 C         139.9239  142.9886  162.0197 C.3     1  UNL1        0.0309
      9 C         140.4032  142.6881  163.4089 C.3     1  UNL1        0.0954
     10 H         140.4439  141.8509  165.9214 H       1  UNL1        0.1510
     11 C         140.3640  143.9494  159.6463 C.ar    1  UNL1        0.2362
     12 N         140.6514  145.1973  158.8651 N.ar    1  UNL1       -0.1895
     13 C         139.9781  145.0740  157.5304 C.ar    1  UNL1        0.2210
     14 N         139.2745  143.7499  157.4867 N.ar    1  UNL1       -0.0544
     15 O         139.5130  143.0549  158.7944 O.2     1  UNL1       -0.3370
     16 C         140.0038  146.0954  156.4322 C.ar    1  UNL1        0.1202
     17 C         140.6876  145.7838  155.1340 C.ar    1  UNL1        0.0224
     18 C         140.7134  146.8052  154.0358 C.ar    1  UNL1        0.0031
     19 C         140.0553  148.1383  154.2358 C.ar    1  UNL1        0.0177
     20 C         140.0811  149.1597  153.1376 C.ar    1  UNL1        0.0015
     21 C         139.4230  150.4927  153.3376 C.ar    1  UNL1        0.0001
     22 C         138.7392  150.8043  154.6358 C.ar    1  UNL1        0.0015
     23 C         138.7134  149.7829  155.7340 C.ar    1  UNL1        0.0191
     24 C         139.3715  148.4499  155.5340 C.ar    1  UNL1        0.0814
     25 N         139.3457  147.4284  156.6322 N.ar    1  UNL1       -0.2422
     26 C         141.8413  141.7863  167.5765 C.3     1  UNL1        0.1054
     27 C         140.8503  141.5236  168.6714 C.3     1  UNL1        0.0635
     28 C         140.0128  141.4901  169.9154 C.3     1  UNL1        0.0164
     29 C         138.9679  140.4280  169.7423 C.3     1  UNL1        0.0014
     30 C         139.1596  139.8050  168.3913 C.3     1  UNL1        0.0014
     31 C         140.3230  140.4821  167.7294 C.3     1  UNL1        0.0164
     32 C         143.0740  142.5429  169.5469 C.3     1  UNL1        0.0896
     33 N         141.5848  142.6200  169.3845 N.3     1  UNL1       -0.2712
     34 C         140.8301  143.7935  169.9352 C.3     1  UNL1        0.0896
@<TRIPOS>BOND
     1    32    33    1
     2    33    34    1
     3    33    27    1
     4    27    26    1
     5    26     1    1
     6     1     2   am
     7     2     3    2
     8     2     4   am
     9     4     5    1
    10     5     6    1
    11     6     7    1
    12     7    11    1
    13    11    12   ar
    14    12    13   ar
    15    13    16    1
    16    16    17   ar
    17    17    18   ar
    18    18    19   ar
    19    19    20   ar
    20    20    21   ar
    21    21    22   ar
    22    22    23   ar
    23    23    24   ar
    24    24    25   ar
    25    13    14   ar
    26    14    15   ar
    27     7     8    1
    28     8     9    1
    29    27    28    1
    30    28    29    1
    31    29    30    1
    32    30    31    1
    33    31    27    1
    34     9     4    1
    35    15    11   ar
    36    25    16   ar
    37    24    19   ar
    38     1    10    1
@<TRIPOS>MOLECULE
*****
 34 38 0 0 0
SMALL
GASTEIGER

@<TRIPOS>ATOM
      1 N         142.3745  141.8485  166.6881 N.am    1  UNL1       -0.2874
      2 C         143.4320  142.4427  165.8058 C.2     1  UNL1        0.3040
      3 O         144.4165  143.4232  166.3711 O.2     1  UNL1       -0.2526
      4 N         143.5051  142.0565  164.3582 N.am    1  UNL1       -0.2642
      5 C         144.5627  142.6507  163.4760 C.3     1  UNL1        0.0954
      6 C         144.6358  142.2645  162.0284 C.3     1  UNL1        0.0309
      7 C         143.6514  141.2840  161.4631 C.3     1  UNL1        0.0827
      8 C         142.5938  140.6898  162.3454 C.3     1  UNL1        0.0309
      9 C         142.5207  141.0760  163.7929 C.3     1  UNL1        0.0954
     10 H         141.7283  141.2050  166.3170 H       1  UNL1        0.1510
     11 C         143.7245  140.8978  160.0156 C.ar    1  UNL1        0.2362
     12 N         143.2457  139.6058  159.4224 N.ar    1  UNL1       -0.1895
     13 C         143.5145  139.6453  157.9472 C.ar    1  UNL1        0.2210
     14 N         144.1594  140.9616  157.6286 N.ar    1  UNL1       -0.0544
     15 O         144.2892  141.7357  158.9069 O.2     1  UNL1       -0.3370
     16 C         143.1946  138.5591  156.9634 C.ar    1  UNL1        0.1202
     17 C         142.8246  138.9101  155.5528 C.ar    1  UNL1        0.0224
     18 C         142.5047  137.8240  154.5689 C.ar    1  UNL1        0.0031
     19 C         142.5547  136.3868  154.9957 C.ar    1  UNL1        0.0177
     20 C         142.2348  135.3007  154.0119 C.ar    1  UNL1        0.0015
     21 C         142.2849  133.8636  154.4387 C.ar    1  UNL1        0.0001
     22 C         142.6550  133.5126  155.8494 C.ar    1  UNL1        0.0015
     23 C         142.9749  134.5987  156.8332 C.ar    1  UNL1        0.0191
     24 C         142.9248  136.0358  156.4064 C.ar    1  UNL1        0.0814
     25 N         143.2447  137.1220  157.3902 N.ar    1  UNL1       -0.2422
     26 C         142.3013  142.2347  168.1357 C.3     1  UNL1        0.1054
     27 C         141.1077  141.8453  168.9565 C.3     1  UNL1        0.0635
     28 C         139.9891  141.7089  169.9465 C.3     1  UNL1        0.0164
     29 C         139.1883  140.4956  169.5769 C.3     1  UNL1        0.0014
     30 C         139.8120  139.8822  168.3583 C.3     1  UNL1        0.0014
     31 C         140.9982  140.7163  167.9749 C.3     1  UNL1        0.0164
     32 C         142.8325  143.1724  170.3755 C.3     1  UNL1        0.0896
     33 N         141.4668  143.0557  169.7664 N.3     1  UNL1       -0.2712
     34 C         140.4600  144.1494  169.9672 C.3     1  UNL1        0.0896
@<TRIPOS>BOND
     1    32    33    1
     2    33    34    1
     3    33    27    1
     4    27    26    1
     5    26     1    1
     6     1     2   am
     7     2     3    2
     8     2     4   am
     9     4     5    1
    10     5     6    1
    11     6     7    1
    12     7    11    1
    13    11    12   ar
    14    12    13   ar
    15    13    16    1
    16    16    17   ar
    17    17    18   ar
    18    18    19   ar
    19    19    20   ar
    20    20    21   ar
    21    21    22   ar
    22    22    23   ar
    23    23    24   ar
    24    24    25   ar
    25    13    14   ar
    26    14    15   ar
    27     7     8    1
    28     8     9    1
    29    27    28    1
    30    28    29    1
    31    29    30    1
    32    30    31    1
    33    31    27    1
    34     9     4    1
    35    15    11   ar
    36    25    16   ar
    37    24    19   ar
    38     1    10    1
@<TRIPOS>MOLECULE
*****
 34 38 0 0 0
SMALL
GASTEIGER

@<TRIPOS>ATOM
      1 N         140.7730  141.3560  166.5110 N.am    1  UNL1       -0.2874
      2 C         140.2090  140.1797  165.7706 C.2     1  UNL1        0.3040
      3 O         139.1374  139.3404  166.4008 O.2     1  UNL1       -0.2526
      4 N         140.7165  139.8428  164.3999 N.am    1  UNL1       -0.2642
      5 C         140.1525  138.6665  163.6595 C.3     1  UNL1        0.0954
      6 C         140.6600  138.3296  162.2888 C.3     1  UNL1        0.0309
      7 C         141.7316  139.1689  161.6585 C.3     1  UNL1        0.0827
      8 C         142.2957  140.3451  162.3989 C.3     1  UNL1        0.0309
      9 C         141.7881  140.6821  163.7696 C.3     1  UNL1        0.0954
     10 H         141.4764  141.9068  166.0973 H       1  UNL1        0.1510
     11 C         142.2391  138.8319  160.2878 C.ar    1  UNL1        0.2362
     12 N         141.8400  137.6408  159.4679 N.ar    1  UNL1       -0.1895
     13 C         142.5892  137.6997  158.1697 C.ar    1  UNL1        0.2210
     14 N         143.4512  138.9271  158.1872 N.ar    1  UNL1       -0.0544
     15 O         143.2349  139.6269  159.4962 O.2     1  UNL1       -0.3370
     16 C         142.4931  136.7056  157.0505 C.ar    1  UNL1        0.1202
     17 C         141.7332  137.0507  155.8041 C.ar    1  UNL1        0.0224
     18 C         141.6371  136.0566  154.6849 C.ar    1  UNL1        0.0031
     19 C         142.3008  134.7175  154.8120 C.ar    1  UNL1        0.0177
     20 C         142.2047  133.7234  153.6929 C.ar    1  UNL1        0.0015
     21 C         142.8685  132.3844  153.8201 C.ar    1  UNL1        0.0001
     22 C         143.6283  132.0393  155.0665 C.ar    1  UNL1        0.0015
     23 C         143.7245  133.0333  156.1857 C.ar    1  UNL1        0.0191
     24 C         143.0607  134.3724  156.0585 C.ar    1  UNL1        0.0814
     25 N         143.1568  135.3665  157.1777 N.ar    1  UNL1       -0.2422
     26 C         140.2655  141.6930  167.8817 C.3     1  UNL1        0.1054
     27 C         141.2341  141.9538  168.9970 C.3     1  UNL1        0.0635
     28 C         141.9512  142.1764  170.2955 C.3     1  UNL1        0.0164
     29 C         143.3950  142.4425  169.9880 C.3     1  UNL1        0.0014
     30 C         143.5702  142.3843  168.4994 C.3     1  UNL1        0.0014
     31 C         142.2347  142.0823  167.8869 C.3     1  UNL1        0.0164
     32 C         139.2541  140.4886  169.8233 C.3     1  UNL1        0.0896
     33 N         140.0309  141.7708  169.8739 N.3     1  UNL1       -0.2712
     34 C         139.6047  142.8699  170.8013 C.3     1  UNL1        0.0896
@<TRIPOS>BOND
     1    32    33    1
     2    33    34    1
     3    33    27    1
     4    27    26    1
     5    26     1    1
     6     1     2   am
     7     2     3    2
     8     2     4   am
     9     4     5    1
    10     5     6    1
    11     6     7    1
    12     7    11    1
    13    11    12   ar
    14    12    13   ar
    15    13    16    1
    16    16    17   ar
    17    17    18   ar
    18    18    19   ar
    19    19    20   ar
    20    20    21   ar
    21    21    22   ar
    22    22    23   ar
    23    23    24   ar
    24    24    25   ar
    25    13    14   ar
    26    14    15   ar
    27     7     8    1
    28     8     9    1
    29    27    28    1
    30    28    29    1
    31    29    30    1
    32    30    31    1
    33    31    27    1
    34     9     4    1
    35    15    11   ar
    36    25    16   ar
    37    24    19   ar
    38     1    10    1
@<TRIPOS>MOLECULE
*****
 34 38 0 0 0
SMALL
GASTEIGER

@<TRIPOS>ATOM
      1 N         141.6537  142.0690  162.5003 N.am    1  UNL1       -0.2874
      2 C         142.1949  142.3006  161.1207 C.2     1  UNL1        0.3040
      3 O         142.5526  143.6887  160.6785 O.2     1  UNL1       -0.2526
      4 N         142.3785  141.1442  160.1832 N.am    1  UNL1       -0.2642
      5 C         142.9198  141.3758  158.8035 C.3     1  UNL1        0.0954
      6 C         143.1034  140.2194  157.8660 C.3     1  UNL1        0.0309
      7 C         142.7457  138.8313  158.3082 C.3     1  UNL1        0.0827
      8 C         142.2045  138.5997  159.6878 C.3     1  UNL1        0.0309
      9 C         142.0209  139.7562  160.6253 C.3     1  UNL1        0.0954
     10 H         141.4190  141.1580  162.7905 H       1  UNL1        0.1510
     11 C         142.9293  137.6749  157.3707 C.ar    1  UNL1        0.2362
     12 N         142.6624  136.2329  157.6864 N.ar    1  UNL1       -0.1895
     13 C         142.9802  135.4242  156.4636 C.ar    1  UNL1        0.2210
     14 N         143.4435  136.3663  155.3923 N.ar    1  UNL1       -0.0544
     15 O         143.4121  137.7573  155.9528 O.2     1  UNL1       -0.3370
     16 C         142.8564  133.9349  156.3349 C.ar    1  UNL1        0.1202
     17 C         143.8614  133.0388  156.9960 C.ar    1  UNL1        0.0224
     18 C         143.7376  131.5495  156.8674 C.ar    1  UNL1        0.0031
     19 C         142.6087  130.9562  156.0775 C.ar    1  UNL1        0.0177
     20 C         142.4849  129.4669  155.9489 C.ar    1  UNL1        0.0015
     21 C         141.3561  128.8736  155.1591 C.ar    1  UNL1        0.0001
     22 C         140.3511  129.7697  154.4979 C.ar    1  UNL1        0.0015
     23 C         140.4749  131.2590  154.6266 C.ar    1  UNL1        0.0191
     24 C         141.6037  131.8522  155.4164 C.ar    1  UNL1        0.0814
     25 N         141.7276  133.3416  155.5451 N.ar    1  UNL1       -0.2422
     26 C         141.4701  143.2255  163.4379 C.3     1  UNL1        0.1054
     27 C         140.1015  143.7951  163.6672 C.3     1  UNL1        0.0635
     28 C         138.8622  144.6309  163.7925 C.3     1  UNL1        0.0164
     29 C         137.7641  143.7553  164.3193 C.3     1  UNL1        0.0014
     30 C         138.3247  142.3785  164.5195 C.3     1  UNL1        0.0014
     31 C         139.7693  142.4031  164.1165 C.3     1  UNL1        0.0164
     32 C         140.0106  145.8931  162.1374 C.3     1  UNL1        0.0896
     33 N         140.7199  145.0681  163.1699 N.3     1  UNL1       -0.2712
     34 C         142.0476  145.5160  163.7053 C.3     1  UNL1        0.0896
@<TRIPOS>BOND
     1    32    33    1
     2    33    34    1
     3    33    27    1
     4    27    26    1
     5    26     1    1
     6     1     2   am
     7     2     3    2
     8     2     4   am
     9     4     5    1
    10     5     6    1
    11     6     7    1
    12     7    11    1
    13    11    12   ar
    14    12    13   ar
    15    13    16    1
    16    16    17   ar
    17    17    18   ar
    18    18    19   ar
    19    19    20   ar
    20    20    21   ar
    21    21    22   ar
    22    22    23   ar
    23    23    24   ar
    24    24    25   ar
    25    13    14   ar
    26    14    15   ar
    27     7     8    1
    28     8     9    1
    29    27    28    1
    30    28    29    1
    31    29    30    1
    32    30    31    1
    33    31    27    1
    34     9     4    1
    35    15    11   ar
    36    25    16   ar
    37    24    19   ar
    38     1    10    1
