@<TRIPOS>MOLECULE
*****
 28 30 0 0 0
SMALL
GASTEIGER

@<TRIPOS>ATOM
      1 C         142.6215  137.4589  157.2821 C.2     1  UNL1        0.0000
      2 C         143.4702  138.4676  156.5664 C.2     1  UNL1        0.0004
      3 C         144.1796  138.0879  155.3005 C.2     1  UNL1        0.0061
      4 C         145.0283  139.0967  154.5849 C.2     1  UNL1        0.0688
      5 C         145.1676  140.4851  155.1352 C.2     1  UNL1        0.2218
      6 N         146.0164  141.4939  154.4195 N.2     1  UNL1       -0.1771
      7 C         146.7258  141.1142  153.1536 C.3     1  UNL1        0.4026
      8 C         146.1557  142.8823  154.9698 C.3     1  UNL1        0.4026
      9 C         144.4582  140.8648  156.4011 C.2     1  UNL1        0.0688
     10 C         143.6095  139.8561  157.1167 C.2     1  UNL1        0.0061
     11 C         140.4933  138.5980  161.0798 C.ar    1  UNL1        0.0479
     12 C         139.8059  138.7619  159.7568 C.ar    1  UNL1        0.0145
     13 C         140.5153  138.3822  158.4909 C.ar    1  UNL1        0.0013
     14 C         141.9121  137.8386  158.5480 C.ar    1  UNL1        0.0001
     15 C         142.5995  137.6746  159.8710 C.ar    1  UNL1        0.0013
     16 C         141.8901  138.0543  161.1370 C.ar    1  UNL1        0.0145
     17 C         139.9850  140.3409  162.9382 C.3     1  UNL1        0.1122
     18 N         139.7839  138.9777  162.3458 N.pl3   1  UNL1       -0.3041
     19 C         138.8734  137.9941  163.0193 C.3     1  UNL1        0.1122
     20 C         142.4822  136.0705  156.7317 C.ar    1  UNL1        0.0001
     21 C         141.4750  135.7873  155.6568 C.ar    1  UNL1        0.0013
     22 C         141.3357  134.3989  155.1065 C.ar    1  UNL1        0.0145
     23 C         142.2035  133.2936  155.6311 C.ar    1  UNL1        0.0479
     24 C         143.2106  133.5767  156.7060 C.ar    1  UNL1        0.0145
     25 C         143.3500  134.9652  157.2563 C.ar    1  UNL1        0.0013
     26 N         142.0642  131.9051  155.0807 N.pl3   1  UNL1       -0.3041
     27 C         143.2584  130.9997  155.0185 C.3     1  UNL1        0.1122
     28 C         140.7305  131.4222  154.5926 C.3     1  UNL1        0.1122
@<TRIPOS>UNITY_ATOM_ATTR
6 1
charge 1
@<TRIPOS>BOND
     1    17    18    1
     2    18    19    1
     3    18    11    1
     4    11    12   ar
     5    12    13   ar
     6    13    14   ar
     7    14     1    1
     8     1     2    2
     9     2     3    1
    10     3     4    2
    11     4     5    1
    12     5     6    2
    13     6     7    1
    14     6     8    1
    15     5     9    1
    16     9    10    2
    17     1    20    1
    18    20    21   ar
    19    21    22   ar
    20    22    23   ar
    21    23    26    1
    22    26    27    1
    23    26    28    1
    24    23    24   ar
    25    24    25   ar
    26    14    15   ar
    27    15    16   ar
    28    16    11   ar
    29    10     2    1
    30    25    20   ar
@<TRIPOS>MOLECULE
*****
 28 30 0 0 0
SMALL
GASTEIGER

@<TRIPOS>ATOM
      1 C         142.6129  137.4614  157.2981 C.2     1  UNL1        0.0000
      2 C         143.4599  138.4689  156.5788 C.2     1  UNL1        0.0004
      3 C         143.5975  139.8594  157.1245 C.2     1  UNL1        0.0061
      4 C         144.4445  140.8670  156.4051 C.2     1  UNL1        0.0688
      5 C         145.1539  140.4841  155.1401 C.2     1  UNL1        0.2218
      6 N         146.0009  141.4917  154.4208 N.2     1  UNL1       -0.1771
      7 C         146.1385  142.8821  154.9665 C.3     1  UNL1        0.4026
      8 C         146.7102  141.1088  153.1558 C.3     1  UNL1        0.4026
      9 C         145.0162  139.0937  154.5945 C.2     1  UNL1        0.0688
     10 C         144.1693  138.0861  155.3137 C.2     1  UNL1        0.0061
     11 C         142.2000  133.2901  155.6610 C.ar    1  UNL1        0.0479
     12 C         141.3253  134.3909  155.1384 C.ar    1  UNL1        0.0145
     13 C         141.4629  135.7813  155.6841 C.ar    1  UNL1        0.0013
     14 C         142.4753  136.0710  156.7524 C.ar    1  UNL1        0.0001
     15 C         143.3500  134.9702  157.2749 C.ar    1  UNL1        0.0013
     16 C         143.2124  133.5798  156.7293 C.ar    1  UNL1        0.0145
     17 C         140.7386  131.4271  154.5918 C.3     1  UNL1        0.1122
     18 N         142.0624  131.8997  155.1153 N.pl3   1  UNL1       -0.3041
     19 C         143.2486  130.9818  155.0932 C.3     1  UNL1        0.1122
     20 C         141.9036  137.8442  158.5630 C.ar    1  UNL1        0.0001
     21 C         142.5932  137.6892  159.8861 C.ar    1  UNL1        0.0013
     22 C         141.8839  138.0720  161.1511 C.ar    1  UNL1        0.0145
     23 C         140.4849  138.6100  161.0931 C.ar    1  UNL1        0.0479
     24 C         139.7952  138.7651  159.7701 C.ar    1  UNL1        0.0145
     25 C         140.5045  138.3822  158.5051 C.ar    1  UNL1        0.0013
     26 N         139.7755  138.9929  162.3581 N.pl3   1  UNL1       -0.3041
     27 C         139.9682  140.3613  162.9413 C.3     1  UNL1        0.1122
     28 C         138.8735  138.0072  163.0400 C.3     1  UNL1        0.1122
@<TRIPOS>UNITY_ATOM_ATTR
6 1
charge 1
@<TRIPOS>BOND
     1    17    18    1
     2    18    19    1
     3    18    11    1
     4    11    12   ar
     5    12    13   ar
     6    13    14   ar
     7    14     1    1
     8     1     2    2
     9     2     3    1
    10     3     4    2
    11     4     5    1
    12     5     6    2
    13     6     7    1
    14     6     8    1
    15     5     9    1
    16     9    10    2
    17     1    20    1
    18    20    21   ar
    19    21    22   ar
    20    22    23   ar
    21    23    26    1
    22    26    27    1
    23    26    28    1
    24    23    24   ar
    25    24    25   ar
    26    14    15   ar
    27    15    16   ar
    28    16    11   ar
    29    10     2    1
    30    25    20   ar
@<TRIPOS>MOLECULE
*****
 28 30 0 0 0
SMALL
GASTEIGER

@<TRIPOS>ATOM
      1 C         139.4953  144.8141  156.3511 C.2     1  UNL1        0.0000
      2 C         138.3817  143.8804  155.9795 C.2     1  UNL1        0.0004
      3 C         138.2004  142.5935  156.7285 C.2     1  UNL1        0.0061
      4 C         137.0867  141.6598  156.3568 C.2     1  UNL1        0.0688
      5 C         136.1544  142.0131  155.2362 C.2     1  UNL1        0.2218
      6 N         135.0408  141.0794  154.8645 N.2     1  UNL1       -0.1771
      7 C         134.8595  139.7925  155.6135 C.3     1  UNL1        0.4026
      8 C         134.1084  141.4327  153.7438 C.3     1  UNL1        0.4026
      9 C         136.3357  143.3000  154.4871 C.2     1  UNL1        0.0688
     10 C         137.4493  144.2336  154.8588 C.2     1  UNL1        0.0061
     11 C         140.0391  148.6747  154.1040 C.ar    1  UNL1        0.0479
     12 C         139.1725  148.6348  155.3277 C.ar    1  UNL1        0.0145
     13 C         138.9912  147.3479  156.0767 C.ar    1  UNL1        0.0013
     14 C         139.6766  146.1009  155.6021 C.ar    1  UNL1        0.0001
     15 C         140.5432  146.1409  154.3785 C.ar    1  UNL1        0.0013
     16 C         140.7244  147.4277  153.6294 C.ar    1  UNL1        0.0145
     17 C         139.6582  150.1102  151.9724 C.3     1  UNL1        0.1122
     18 N         140.2204  149.9616  153.3550 N.pl3   1  UNL1       -0.3041
     19 C         140.9638  151.0999  153.9886 C.3     1  UNL1        0.1122
     20 C         140.4276  144.4608  157.4718 C.ar    1  UNL1        0.0001
     21 C         141.5978  143.5575  157.2174 C.ar    1  UNL1        0.0013
     22 C         142.5301  143.2042  158.3381 C.ar    1  UNL1        0.0145
     23 C         142.2923  143.7543  159.7132 C.ar    1  UNL1        0.0479
     24 C         141.1222  144.6576  159.9676 C.ar    1  UNL1        0.0145
     25 C         140.1898  145.0109  158.8469 C.ar    1  UNL1        0.0013
     26 N         143.2247  143.4010  160.8339 N.pl3   1  UNL1       -0.3041
     27 C         143.0179  143.9931  162.1964 C.3     1  UNL1        0.1122
     28 C         144.3639  142.4556  160.5919 C.3     1  UNL1        0.1122
@<TRIPOS>UNITY_ATOM_ATTR
6 1
charge 1
@<TRIPOS>BOND
     1    17    18    1
     2    18    19    1
     3    18    11    1
     4    11    12   ar
     5    12    13   ar
     6    13    14   ar
     7    14     1    1
     8     1     2    2
     9     2     3    1
    10     3     4    2
    11     4     5    1
    12     5     6    2
    13     6     7    1
    14     6     8    1
    15     5     9    1
    16     9    10    2
    17     1    20    1
    18    20    21   ar
    19    21    22   ar
    20    22    23   ar
    21    23    26    1
    22    26    27    1
    23    26    28    1
    24    23    24   ar
    25    24    25   ar
    26    14    15   ar
    27    15    16   ar
    28    16    11   ar
    29    10     2    1
    30    25    20   ar
@<TRIPOS>MOLECULE
*****
 28 30 0 0 0
SMALL
GASTEIGER

@<TRIPOS>ATOM
      1 C         140.0587  139.8389  158.8815 C.2     1  UNL1        0.0000
      2 C         139.7087  139.6138  160.3226 C.2     1  UNL1        0.0004
      3 C         139.9171  138.2642  160.9431 C.2     1  UNL1        0.0061
      4 C         139.5670  138.0392  162.3843 C.2     1  UNL1        0.0688
      5 C         139.0085  139.1638  163.2049 C.2     1  UNL1        0.2218
      6 N         138.6585  138.9388  164.6460 N.2     1  UNL1       -0.1771
      7 C         138.8668  137.5892  165.2666 C.3     1  UNL1        0.4026
      8 C         138.1000  140.0634  165.4666 C.3     1  UNL1        0.4026
      9 C         138.8002  140.5134  162.5843 C.2     1  UNL1        0.0688
     10 C         139.1502  140.7385  161.1433 C.2     1  UNL1        0.0061
     11 C         139.4336  143.8878  157.0200 C.ar    1  UNL1        0.0479
     12 C         140.7547  143.5439  157.6414 C.ar    1  UNL1        0.0145
     13 C         140.9631  142.1943  158.2619 C.ar    1  UNL1        0.0013
     14 C         139.8503  141.1885  158.2610 C.ar    1  UNL1        0.0001
     15 C         138.5292  141.5324  157.6396 C.ar    1  UNL1        0.0013
     16 C         138.3208  142.8820  157.0190 C.ar    1  UNL1        0.0145
     17 C         139.9813  146.4253  156.9163 C.3     1  UNL1        0.1122
     18 N         139.2252  145.2374  156.3994 N.pl3   1  UNL1       -0.3041
     19 C         138.2607  145.3992  155.2621 C.3     1  UNL1        0.1122
     20 C         140.6171  138.7143  158.0610 C.ar    1  UNL1        0.0001
     21 C         139.7504  138.0186  157.0535 C.ar    1  UNL1        0.0013
     22 C         140.3088  136.8940  156.2329 C.ar    1  UNL1        0.0145
     23 C         141.7340  136.4650  156.4198 C.ar    1  UNL1        0.0479
     24 C         142.6007  137.1606  157.4272 C.ar    1  UNL1        0.0145
     25 C         142.0423  138.2853  158.2478 C.ar    1  UNL1        0.0013
     26 N         142.2924  135.3403  155.5991 N.pl3   1  UNL1       -0.3041
     27 C         141.3752  134.2956  155.0359 C.3     1  UNL1        0.1122
     28 C         143.7680  135.2605  155.3418 C.3     1  UNL1        0.1122
@<TRIPOS>UNITY_ATOM_ATTR
6 1
charge 1
@<TRIPOS>BOND
     1    17    18    1
     2    18    19    1
     3    18    11    1
     4    11    12   ar
     5    12    13   ar
     6    13    14   ar
     7    14     1    1
     8     1     2    2
     9     2     3    1
    10     3     4    2
    11     4     5    1
    12     5     6    2
    13     6     7    1
    14     6     8    1
    15     5     9    1
    16     9    10    2
    17     1    20    1
    18    20    21   ar
    19    21    22   ar
    20    22    23   ar
    21    23    26    1
    22    26    27    1
    23    26    28    1
    24    23    24   ar
    25    24    25   ar
    26    14    15   ar
    27    15    16   ar
    28    16    11   ar
    29    10     2    1
    30    25    20   ar
@<TRIPOS>MOLECULE
*****
 28 30 0 0 0
SMALL
GASTEIGER

@<TRIPOS>ATOM
      1 C         140.0679  139.8251  158.8150 C.2     1  UNL1        0.0000
      2 C         139.7165  139.5925  160.2545 C.2     1  UNL1        0.0004
      3 C         139.1543  140.7119  161.0797 C.2     1  UNL1        0.0061
      4 C         138.8029  140.4792  162.5193 C.2     1  UNL1        0.0688
      5 C         139.0136  139.1271  163.1336 C.2     1  UNL1        0.2218
      6 N         138.6621  138.8944  164.5732 N.2     1  UNL1       -0.1771
      7 C         138.1000  140.0138  165.3984 C.3     1  UNL1        0.4026
      8 C         138.8728  137.5424  165.1876 C.3     1  UNL1        0.4026
      9 C         139.5758  138.0077  162.3085 C.2     1  UNL1        0.0688
     10 C         139.9272  138.2404  160.8689 C.2     1  UNL1        0.0061
     11 C         141.7544  136.4669  156.3394 C.ar    1  UNL1        0.0479
     12 C         142.6230  137.1710  157.3394 C.ar    1  UNL1        0.0145
     13 C         142.0608  138.2904  158.1645 C.ar    1  UNL1        0.0013
     14 C         140.6301  138.7057  157.9898 C.ar    1  UNL1        0.0001
     15 C         139.7616  138.0017  156.9899 C.ar    1  UNL1        0.0013
     16 C         140.3237  136.8823  156.1647 C.ar    1  UNL1        0.0145
     17 C         141.4703  134.6922  154.4634 C.3     1  UNL1        0.1122
     18 N         142.3166  135.3475  155.5143 N.pl3   1  UNL1       -0.3041
     19 C         143.7250  134.8834  155.7400 C.3     1  UNL1        0.1122
     20 C         139.8572  141.1772  158.2006 C.ar    1  UNL1        0.0001
     21 C         138.5259  141.5324  157.6078 C.ar    1  UNL1        0.0013
     22 C         138.3152  142.8845  156.9934 C.ar    1  UNL1        0.0145
     23 C         139.4358  143.8814  156.9718 C.ar    1  UNL1        0.0479
     24 C         140.7671  143.5262  157.5646 C.ar    1  UNL1        0.0145
     25 C         140.9778  142.1741  158.1790 C.ar    1  UNL1        0.0013
     26 N         139.2250  145.2335  156.3574 N.pl3   1  UNL1       -0.3041
     27 C         138.2465  145.4022  155.2332 C.3     1  UNL1        0.1122
     28 C         139.9928  146.4169  156.8673 C.3     1  UNL1        0.1122
@<TRIPOS>UNITY_ATOM_ATTR
6 1
charge 1
@<TRIPOS>BOND
     1    17    18    1
     2    18    19    1
     3    18    11    1
     4    11    12   ar
     5    12    13   ar
     6    13    14   ar
     7    14     1    1
     8     1     2    2
     9     2     3    1
    10     3     4    2
    11     4     5    1
    12     5     6    2
    13     6     7    1
    14     6     8    1
    15     5     9    1
    16     9    10    2
    17     1    20    1
    18    20    21   ar
    19    21    22   ar
    20    22    23   ar
    21    23    26    1
    22    26    27    1
    23    26    28    1
    24    23    24   ar
    25    24    25   ar
    26    14    15   ar
    27    15    16   ar
    28    16    11   ar
    29    10     2    1
    30    25    20   ar
@<TRIPOS>MOLECULE
*****
 28 30 0 0 0
SMALL
GASTEIGER

@<TRIPOS>ATOM
      1 C         141.3464  138.8641  158.0240 C.2     1  UNL1        0.0000
      2 C         141.5670  140.2828  157.5898 C.2     1  UNL1        0.0004
      3 C         141.4952  141.3944  158.5944 C.2     1  UNL1        0.0061
      4 C         141.7157  142.8132  158.1601 C.2     1  UNL1        0.0688
      5 C         142.0080  143.1203  156.7213 C.2     1  UNL1        0.2218
      6 N         142.2286  144.5391  156.2870 N.2     1  UNL1       -0.1771
      7 C         142.1568  145.6507  157.2916 C.3     1  UNL1        0.4026
      8 C         142.5209  144.8462  154.8482 C.3     1  UNL1        0.4026
      9 C         142.0798  142.0087  155.7167 C.2     1  UNL1        0.0688
     10 C         141.8593  140.5900  156.1510 C.2     1  UNL1        0.0061
     11 C         141.5618  135.5293  155.0103 C.ar    1  UNL1        0.0479
     12 C         140.2904  136.3072  155.1786 C.ar    1  UNL1        0.0145
     13 C         140.2186  137.4188  156.1831 C.ar    1  UNL1        0.0013
     14 C         141.4182  137.7525  157.0195 C.ar    1  UNL1        0.0001
     15 C         142.6896  136.9746  156.8512 C.ar    1  UNL1        0.0013
     16 C         142.7614  135.8630  155.8466 C.ar    1  UNL1        0.0145
     17 C         141.6843  132.9915  154.4676 C.3     1  UNL1        0.1122
     18 N         141.6335  134.4177  154.0057 N.pl3   1  UNL1       -0.3041
     19 C         141.6546  134.7323  152.5392 C.3     1  UNL1        0.1122
     20 C         141.0541  138.5570  159.4628 C.ar    1  UNL1        0.0001
     21 C         139.6345  138.4973  159.9436 C.ar    1  UNL1        0.0013
     22 C         139.3422  138.1902  161.3824 C.ar    1  UNL1        0.0145
     23 C         140.4695  137.9428  162.3405 C.ar    1  UNL1        0.0479
     24 C         141.8891  138.0025  161.8598 C.ar    1  UNL1        0.0145
     25 C         142.1814  138.3096  160.4210 C.ar    1  UNL1        0.0013
     26 N         140.1771  137.6357  163.7794 N.pl3   1  UNL1       -0.3041
     27 C         138.8312  137.9596  164.3569 C.3     1  UNL1        0.1122
     28 C         141.2307  137.0046  164.6406 C.3     1  UNL1        0.1122
@<TRIPOS>UNITY_ATOM_ATTR
6 1
charge 1
@<TRIPOS>BOND
     1    17    18    1
     2    18    19    1
     3    18    11    1
     4    11    12   ar
     5    12    13   ar
     6    13    14   ar
     7    14     1    1
     8     1     2    2
     9     2     3    1
    10     3     4    2
    11     4     5    1
    12     5     6    2
    13     6     7    1
    14     6     8    1
    15     5     9    1
    16     9    10    2
    17     1    20    1
    18    20    21   ar
    19    21    22   ar
    20    22    23   ar
    21    23    26    1
    22    26    27    1
    23    26    28    1
    24    23    24   ar
    25    24    25   ar
    26    14    15   ar
    27    15    16   ar
    28    16    11   ar
    29    10     2    1
    30    25    20   ar
@<TRIPOS>MOLECULE
*****
 28 30 0 0 0
SMALL
GASTEIGER

@<TRIPOS>ATOM
      1 C         140.4520  139.7045  158.7282 C.2     1  UNL1        0.0000
      2 C         140.4510  141.0806  158.1312 C.2     1  UNL1        0.0004
      3 C         140.8742  141.2801  156.7060 C.2     1  UNL1        0.0061
      4 C         140.8733  142.6562  156.1090 C.2     1  UNL1        0.0688
      5 C         140.4492  143.8327  156.9372 C.2     1  UNL1        0.2218
      6 N         140.4482  145.2089  156.3402 N.2     1  UNL1       -0.1771
      7 C         140.8714  145.4084  154.9150 C.3     1  UNL1        0.4026
      8 C         140.0242  146.3854  157.1683 C.3     1  UNL1        0.4026
      9 C         140.0260  143.6332  158.3623 C.2     1  UNL1        0.0688
     10 C         140.0269  142.2572  158.9593 C.2     1  UNL1        0.0061
     11 C         139.1825  139.1060  163.0037 C.ar    1  UNL1        0.0479
     12 C         140.6237  139.3651  162.6785 C.ar    1  UNL1        0.0145
     13 C         141.0468  139.5646  161.2533 C.ar    1  UNL1        0.0013
     14 C         140.0288  139.5050  160.1533 C.ar    1  UNL1        0.0001
     15 C         138.5876  139.2459  160.4785 C.ar    1  UNL1        0.0013
     16 C         138.1645  139.0464  161.9037 C.ar    1  UNL1        0.0145
     17 C         138.8976  137.5577  165.0705 C.3     1  UNL1        0.1122
     18 N         138.7593  138.9064  164.4289 N.pl3   1  UNL1       -0.3041
     19 C         138.1979  140.0556  165.2124 C.3     1  UNL1        0.1122
     20 C         140.8761  138.5280  157.9000 C.ar    1  UNL1        0.0001
     21 C         142.2527  137.9545  158.0613 C.ar    1  UNL1        0.0013
     22 C         142.6768  136.7779  157.2331 C.ar    1  UNL1        0.0145
     23 C         141.7243  136.1749  156.2436 C.ar    1  UNL1        0.0479
     24 C         140.3477  136.7484  156.0823 C.ar    1  UNL1        0.0145
     25 C         139.9236  137.9250  156.9105 C.ar    1  UNL1        0.0013
     26 N         142.1485  134.9983  155.4155 N.pl3   1  UNL1       -0.3041
     27 C         142.3159  135.1465  153.9322 C.3     1  UNL1        0.1122
     28 C         142.4052  133.6736  156.0706 C.3     1  UNL1        0.1122
@<TRIPOS>UNITY_ATOM_ATTR
6 1
charge 1
@<TRIPOS>BOND
     1    17    18    1
     2    18    19    1
     3    18    11    1
     4    11    12   ar
     5    12    13   ar
     6    13    14   ar
     7    14     1    1
     8     1     2    2
     9     2     3    1
    10     3     4    2
    11     4     5    1
    12     5     6    2
    13     6     7    1
    14     6     8    1
    15     5     9    1
    16     9    10    2
    17     1    20    1
    18    20    21   ar
    19    21    22   ar
    20    22    23   ar
    21    23    26    1
    22    26    27    1
    23    26    28    1
    24    23    24   ar
    25    24    25   ar
    26    14    15   ar
    27    15    16   ar
    28    16    11   ar
    29    10     2    1
    30    25    20   ar
@<TRIPOS>MOLECULE
*****
 28 30 0 0 0
SMALL
GASTEIGER

@<TRIPOS>ATOM
      1 C         141.6979  141.0154  158.2667 C.2     1  UNL1        0.0000
      2 C         141.7919  139.6225  157.7181 C.2     1  UNL1        0.0004
      3 C         142.6166  138.5905  158.4287 C.2     1  UNL1        0.0061
      4 C         142.7105  137.1976  157.8801 C.2     1  UNL1        0.0688
      5 C         141.9798  136.8367  156.6208 C.2     1  UNL1        0.2218
      6 N         142.0738  135.4437  156.0721 N.2     1  UNL1       -0.1771
      7 C         142.8985  134.4118  156.7827 C.3     1  UNL1        0.4026
      8 C         141.3430  135.0828  154.8129 C.3     1  UNL1        0.4026
      9 C         141.1551  137.8686  155.9102 C.2     1  UNL1        0.0688
     10 C         141.0611  139.2615  156.4588 C.2     1  UNL1        0.0061
     11 C         139.2238  144.1112  156.1349 C.ar    1  UNL1        0.0479
     12 C         138.5760  143.1773  157.1137 C.ar    1  UNL1        0.0145
     13 C         139.4007  142.1453  157.8243 C.ar    1  UNL1        0.0013
     14 C         140.8732  142.0473  157.5561 C.ar    1  UNL1        0.0001
     15 C         141.5211  142.9812  156.5773 C.ar    1  UNL1        0.0013
     16 C         140.6964  144.0131  155.8667 C.ar    1  UNL1        0.0145
     17 C         137.2198  144.7222  154.5985 C.3     1  UNL1        0.1122
     18 N         138.3991  145.1431  155.4243 N.pl3   1  UNL1       -0.3041
     19 C         138.7537  146.5960  155.5395 C.3     1  UNL1        0.1122
     20 C         142.4286  141.3763  159.5260 C.ar    1  UNL1        0.0001
     21 C         143.7968  141.9866  159.4505 C.ar    1  UNL1        0.0013
     22 C         144.5275  142.3475  160.7098 C.ar    1  UNL1        0.0145
     23 C         143.8901  142.0982  162.0445 C.ar    1  UNL1        0.0479
     24 C         142.5220  141.4879  162.1200 C.ar    1  UNL1        0.0145
     25 C         141.7912  141.1269  160.8607 C.ar    1  UNL1        0.0013
     26 N         144.6209  142.4591  163.3038 N.pl3   1  UNL1       -0.3041
     27 C         145.7928  141.6375  163.7526 C.3     1  UNL1        0.1122
     28 C         144.1797  143.6417  164.1142 C.3     1  UNL1        0.1122
@<TRIPOS>UNITY_ATOM_ATTR
6 1
charge 1
@<TRIPOS>BOND
     1    17    18    1
     2    18    19    1
     3    18    11    1
     4    11    12   ar
     5    12    13   ar
     6    13    14   ar
     7    14     1    1
     8     1     2    2
     9     2     3    1
    10     3     4    2
    11     4     5    1
    12     5     6    2
    13     6     7    1
    14     6     8    1
    15     5     9    1
    16     9    10    2
    17     1    20    1
    18    20    21   ar
    19    21    22   ar
    20    22    23   ar
    21    23    26    1
    22    26    27    1
    23    26    28    1
    24    23    24   ar
    25    24    25   ar
    26    14    15   ar
    27    15    16   ar
    28    16    11   ar
    29    10     2    1
    30    25    20   ar
@<TRIPOS>MOLECULE
*****
 28 30 0 0 0
SMALL
GASTEIGER

@<TRIPOS>ATOM
      1 C         141.3262  138.7711  157.8488 C.2     1  UNL1        0.0000
      2 C         141.6377  137.4656  157.1792 C.2     1  UNL1        0.0004
      3 C         140.8157  137.0066  156.0115 C.2     1  UNL1        0.0061
      4 C         141.1272  135.7010  155.3419 C.2     1  UNL1        0.0688
      5 C         142.2608  134.8543  155.8400 C.2     1  UNL1        0.2218
      6 N         142.5723  133.5487  155.1704 N.2     1  UNL1       -0.1771
      7 C         141.7503  133.0898  154.0027 C.3     1  UNL1        0.4026
      8 C         143.7059  132.7020  155.6686 C.3     1  UNL1        0.4026
      9 C         143.0828  135.3133  157.0078 C.2     1  UNL1        0.0688
     10 C         142.7713  136.6188  157.6774 C.2     1  UNL1        0.0061
     11 C         143.7923  140.1479  161.3521 C.ar    1  UNL1        0.0479
     12 C         144.1013  140.6513  159.9733 C.ar    1  UNL1        0.0145
     13 C         143.2793  140.1924  158.8056 C.ar    1  UNL1        0.0013
     14 C         142.1483  139.2300  159.0166 C.ar    1  UNL1        0.0001
     15 C         141.8393  138.7266  160.3953 C.ar    1  UNL1        0.0013
     16 C         142.6613  139.1855  161.5631 C.ar    1  UNL1        0.0145
     17 C         145.2261  141.9763  162.5144 C.3     1  UNL1        0.1122
     18 N         144.6144  140.6068  162.5198 N.pl3   1  UNL1       -0.3041
     19 C         144.8247  139.6961  163.6930 C.3     1  UNL1        0.1122
     20 C         140.1927  139.6178  157.3507 C.ar    1  UNL1        0.0001
     21 C         138.9582  139.7855  158.1863 C.ar    1  UNL1        0.0013
     22 C         137.8247  140.6322  157.6881 C.ar    1  UNL1        0.0145
     23 C         137.9255  141.3111  156.3544 C.ar    1  UNL1        0.0479
     24 C         139.1598  141.1434  155.5188 C.ar    1  UNL1        0.0145
     25 C         140.2934  140.2967  156.0169 C.ar    1  UNL1        0.0013
     26 N         136.7918  142.1578  155.8563 N.pl3   1  UNL1       -0.3041
     27 C         136.9751  143.6379  155.6966 C.3     1  UNL1        0.1122
     28 C         135.4750  141.5243  155.5178 C.3     1  UNL1        0.1122
@<TRIPOS>UNITY_ATOM_ATTR
6 1
charge 1
@<TRIPOS>BOND
     1    17    18    1
     2    18    19    1
     3    18    11    1
     4    11    12   ar
     5    12    13   ar
     6    13    14   ar
     7    14     1    1
     8     1     2    2
     9     2     3    1
    10     3     4    2
    11     4     5    1
    12     5     6    2
    13     6     7    1
    14     6     8    1
    15     5     9    1
    16     9    10    2
    17     1    20    1
    18    20    21   ar
    19    21    22   ar
    20    22    23   ar
    21    23    26    1
    22    26    27    1
    23    26    28    1
    24    23    24   ar
    25    24    25   ar
    26    14    15   ar
    27    15    16   ar
    28    16    11   ar
    29    10     2    1
    30    25    20   ar
