@<TRIPOS>MOLECULE
*****
 31 34 0 0 0
SMALL
GASTEIGER

@<TRIPOS>ATOM
      1 C         141.1777  139.4261  164.0477 C.ar    1  UNL1        0.2204
      2 N         140.4697  139.9400  165.2661 N.ar    1  UNL1       -0.2089
      3 C         141.0949  139.7799  166.6202 C.ar    1  UNL1        0.1402
      4 C         142.4281  139.1059  166.7558 C.ar    1  UNL1        0.1773
      5 C         143.1360  138.5920  165.5373 C.ar    1  UNL1        0.1402
      6 N         142.5108  138.7520  164.1833 N.ar    1  UNL1       -0.2089
      7 N         139.3022  139.9063  159.9854 N.pl3   1  UNL1       -0.2586
      8 C         140.3994  140.8325  160.4191 C.3     1  UNL1        0.1167
      9 C         141.0245  140.6724  161.7732 C.3     1  UNL1        0.1151
     10 N         140.5525  139.5861  162.6935 N.pl3   1  UNL1       -0.2764
     11 C         139.4553  138.6599  162.2598 C.3     1  UNL1        0.0955
     12 C         138.9832  137.5735  163.1802 C.3     1  UNL1        0.0233
     13 C         138.8301  138.8199  160.9058 C.3     1  UNL1        0.1149
     14 C         137.3831  140.9453  156.7756 C.ar    1  UNL1        0.1817
     15 N         138.0469  139.6798  156.3195 N.ar    1  UNL1       -0.0586
     16 O         138.8466  139.1366  157.4664 O.2     1  UNL1       -0.3167
     17 C         138.6770  140.0663  158.6313 C.ar    1  UNL1        0.3183
     18 N         137.7725  141.1842  158.2043 N.ar    1  UNL1       -0.1779
     19 C         135.2002  141.2720  155.4051 C.3     1  UNL1        0.0081
     20 C         136.4871  141.8186  155.9481 C.3     1  UNL1        0.0621
     21 C         136.8781  143.2385  155.6637 C.3     1  UNL1        0.0081
     22 O         143.0533  138.9459  168.1099 O.3     1  UNL1       -0.4675
     23 C         142.2805  139.3155  169.3412 C.3     1  UNL1        0.2329
     24 C         142.1623  140.7543  169.7487 C.ar    1  UNL1        0.0339
     25 C         143.3951  141.5963  169.8943 C.ar    1  UNL1        0.0207
     26 C         143.2769  143.0350  170.3019 C.ar    1  UNL1        0.0987
     27 N         141.9258  143.6317  170.5638 N.ar    1  UNL1       -0.2416
     28 C         140.6930  142.7897  170.4182 C.ar    1  UNL1        0.1089
     29 C         140.8113  141.3510  170.0106 C.ar    1  UNL1        0.0871
     30 C         139.5784  140.5090  169.8650 C.1     1  UNL1        0.1018
     31 N         138.3456  139.6670  169.7193 N.1     1  UNL1       -0.1908
@<TRIPOS>BOND
     1    19    20    1
     2    20    21    1
     3    20    14    1
     4    14    15   ar
     5    15    16   ar
     6    16    17   ar
     7    17     7    1
     8     7     8    1
     9     8     9    1
    10     9    10    1
    11    10     1    1
    12     1     2   ar
    13     2     3   ar
    14     3     4   ar
    15     4    22    1
    16    22    23    1
    17    23    24    1
    18    24    25   ar
    19    25    26   ar
    20    26    27   ar
    21    27    28   ar
    22    28    29   ar
    23    29    30    1
    24    30    31    3
    25     4     5   ar
    26     5     6   ar
    27    10    11    1
    28    11    12    1
    29    11    13    1
    30    17    18   ar
    31    18    14   ar
    32    13     7    1
    33     6     1   ar
    34    29    24   ar
@<TRIPOS>MOLECULE
*****
 31 34 0 0 0
SMALL
GASTEIGER

@<TRIPOS>ATOM
      1 C         139.4482  142.6786  162.3525 C.ar    1  UNL1        0.2204
      2 N         138.1656  142.8270  163.1159 N.ar    1  UNL1       -0.2089
      3 C         137.9809  142.1074  164.4191 C.ar    1  UNL1        0.1402
      4 C         139.0788  141.2395  164.9588 C.ar    1  UNL1        0.1773
      5 C         140.3614  141.0911  164.1953 C.ar    1  UNL1        0.1402
      6 N         140.5461  141.8106  162.8922 N.ar    1  UNL1       -0.2089
      7 N         140.0024  144.8371  158.4431 N.pl3   1  UNL1       -0.2586
      8 C         139.4430  143.4454  158.4587 C.3     1  UNL1        0.1167
      9 C         139.2583  142.7259  159.7618 C.3     1  UNL1        0.1151
     10 N         139.6330  143.3981  161.0493 N.pl3   1  UNL1       -0.2764
     11 C         140.1924  144.7898  161.0338 C.3     1  UNL1        0.0955
     12 C         140.5670  145.4620  162.3213 C.3     1  UNL1        0.0233
     13 C         140.3771  145.5093  159.7306 C.3     1  UNL1        0.1149
     14 C         140.0274  147.2173  155.3772 C.ar    1  UNL1        0.1817
     15 N         140.9156  146.1102  154.8919 N.ar    1  UNL1       -0.0586
     16 O         141.0143  145.0839  155.9813 O.2     1  UNL1       -0.3167
     17 C         140.1872  145.5566  157.1399 C.ar    1  UNL1        0.3183
     18 N         139.5772  146.8751  156.7666 N.ar    1  UNL1       -0.1779
     19 C         140.1061  148.6126  153.1870 C.3     1  UNL1        0.0081
     20 C         139.6548  148.4502  154.6082 C.3     1  UNL1        0.0621
     21 C         138.8309  149.5206  155.2605 C.3     1  UNL1        0.0081
     22 O         138.8941  140.5200  166.2619 O.3     1  UNL1       -0.4675
     23 C         140.0799  139.9351  166.9703 C.3     1  UNL1        0.2329
     24 C         140.9209  140.7985  167.8633 C.ar    1  UNL1        0.0339
     25 C         142.1834  141.4150  167.3380 C.ar    1  UNL1        0.0207
     26 C         143.0244  142.2782  168.2310 C.ar    1  UNL1        0.0987
     27 N         142.6029  142.5250  169.6492 N.ar    1  UNL1       -0.2416
     28 C         141.3404  141.9085  170.1745 C.ar    1  UNL1        0.1089
     29 C         140.4994  141.0452  169.2815 C.ar    1  UNL1        0.0871
     30 C         139.2369  140.4286  169.8068 C.1     1  UNL1        0.1018
     31 N         137.9744  139.8121  170.3321 N.1     1  UNL1       -0.1908
@<TRIPOS>BOND
     1    19    20    1
     2    20    21    1
     3    20    14    1
     4    14    15   ar
     5    15    16   ar
     6    16    17   ar
     7    17     7    1
     8     7     8    1
     9     8     9    1
    10     9    10    1
    11    10     1    1
    12     1     2   ar
    13     2     3   ar
    14     3     4   ar
    15     4    22    1
    16    22    23    1
    17    23    24    1
    18    24    25   ar
    19    25    26   ar
    20    26    27   ar
    21    27    28   ar
    22    28    29   ar
    23    29    30    1
    24    30    31    3
    25     4     5   ar
    26     5     6   ar
    27    10    11    1
    28    11    12    1
    29    11    13    1
    30    17    18   ar
    31    18    14   ar
    32    13     7    1
    33     6     1   ar
    34    29    24   ar
@<TRIPOS>MOLECULE
*****
 31 34 0 0 0
SMALL
GASTEIGER

@<TRIPOS>ATOM
      1 C         140.5776  141.7889  163.9105 C.ar    1  UNL1        0.2204
      2 N         139.2501  141.7862  164.6088 N.ar    1  UNL1       -0.2089
      3 C         139.0785  141.0263  165.8907 C.ar    1  UNL1        0.1402
      4 C         140.2344  140.2691  166.4742 C.ar    1  UNL1        0.1773
      5 C         141.5620  140.2719  165.7758 C.ar    1  UNL1        0.1402
      6 N         141.7335  141.0318  164.4940 N.ar    1  UNL1       -0.2089
      7 N         141.0924  144.0685  160.0650 N.pl3   1  UNL1       -0.2586
      8 C         140.7911  142.5995  160.0314 C.3     1  UNL1        0.1167
      9 C         140.6196  141.8397  161.3132 C.3     1  UNL1        0.1151
     10 N         140.7492  142.5489  162.6286 N.pl3   1  UNL1       -0.2764
     11 C         141.0504  144.0179  162.6622 C.3     1  UNL1        0.0955
     12 C         141.1800  144.7271  163.9776 C.3     1  UNL1        0.0233
     13 C         141.2220  144.7777  161.3803 C.3     1  UNL1        0.1149
     14 C         140.7882  146.1173  156.7823 C.ar    1  UNL1        0.1817
     15 N         142.2680  145.8784  156.8388 N.ar    1  UNL1       -0.0586
     16 O         142.5620  145.0819  158.0753 O.2     1  UNL1       -0.3167
     17 C         141.2640  144.8285  158.7831 C.ar    1  UNL1        0.3183
     18 N         140.1677  145.4684  157.9839 N.ar    1  UNL1       -0.1779
     19 C         138.8149  147.6414  156.0519 C.3     1  UNL1        0.0081
     20 C         140.0572  146.8724  155.7120 C.3     1  UNL1        0.0621
     21 C         140.5685  146.8587  154.3019 C.3     1  UNL1        0.0081
     22 O         140.0629  139.5092  167.7560 O.3     1  UNL1       -0.4675
     23 C         139.7358  140.2412  169.0238 C.3     1  UNL1        0.2329
     24 C         140.6201  141.3575  169.4948 C.ar    1  UNL1        0.0339
     25 C         140.1118  142.7687  169.4928 C.ar    1  UNL1        0.0207
     26 C         140.9962  143.8850  169.9638 C.ar    1  UNL1        0.0987
     27 N         142.3888  143.5901  170.4368 N.ar    1  UNL1       -0.2416
     28 C         142.8971  142.1789  170.4387 C.ar    1  UNL1        0.1089
     29 C         142.0127  141.0626  169.9677 C.ar    1  UNL1        0.0871
     30 C         142.5210  139.6513  169.9696 C.1     1  UNL1        0.1018
     31 N         143.0293  138.2401  169.9715 N.1     1  UNL1       -0.1908
@<TRIPOS>BOND
     1    19    20    1
     2    20    21    1
     3    20    14    1
     4    14    15   ar
     5    15    16   ar
     6    16    17   ar
     7    17     7    1
     8     7     8    1
     9     8     9    1
    10     9    10    1
    11    10     1    1
    12     1     2   ar
    13     2     3   ar
    14     3     4   ar
    15     4    22    1
    16    22    23    1
    17    23    24    1
    18    24    25   ar
    19    25    26   ar
    20    26    27   ar
    21    27    28   ar
    22    28    29   ar
    23    29    30    1
    24    30    31    3
    25     4     5   ar
    26     5     6   ar
    27    10    11    1
    28    11    12    1
    29    11    13    1
    30    17    18   ar
    31    18    14   ar
    32    13     7    1
    33     6     1   ar
    34    29    24   ar
@<TRIPOS>MOLECULE
*****
 31 34 0 0 0
SMALL
GASTEIGER

@<TRIPOS>ATOM
      1 C         141.0155  144.7923  159.5270 C.ar    1  UNL1        0.2204
      2 N         139.7660  144.4711  158.7619 N.ar    1  UNL1       -0.2089
      3 C         139.6157  144.9336  157.3429 C.ar    1  UNL1        0.1402
      4 C         140.7149  145.7173  156.6891 C.ar    1  UNL1        0.1773
      5 C         141.9645  146.0385  157.4543 C.ar    1  UNL1        0.1402
      6 N         142.1148  145.5760  158.8732 N.ar    1  UNL1       -0.2089
      7 N         141.4665  143.4048  163.7840 N.pl3   1  UNL1       -0.2586
      8 C         142.1118  142.6331  162.6713 C.3     1  UNL1        0.1167
      9 C         141.9615  143.0956  161.2524 C.3     1  UNL1        0.1151
     10 N         141.1658  144.3298  160.9461 N.pl3   1  UNL1       -0.2764
     11 C         140.5205  145.1015  162.0588 C.3     1  UNL1        0.0955
     12 C         139.7249  146.3356  161.7525 C.3     1  UNL1        0.0233
     13 C         140.6709  144.6390  163.4777 C.3     1  UNL1        0.1149
     14 C         141.1529  142.4681  167.5376 C.ar    1  UNL1        0.1817
     15 N         142.5434  141.9932  167.2356 N.ar    1  UNL1       -0.0586
     16 O         142.8301  142.2863  165.7927 O.2     1  UNL1       -0.3167
     17 C         141.6168  142.9423  165.2030 C.ar    1  UNL1        0.3183
     18 N         140.5803  143.0546  166.2814 N.ar    1  UNL1       -0.1779
     19 C         139.8176  141.0831  169.2837 C.3     1  UNL1        0.0081
     20 C         140.4573  142.3730  168.8632 C.3     1  UNL1        0.0621
     21 C         140.4013  143.5679  169.7682 C.3     1  UNL1        0.0081
     22 O         140.5647  146.1798  155.2701 O.3     1  UNL1       -0.4675
     23 C         139.4349  147.0921  154.8943 C.3     1  UNL1        0.2329
     24 C         139.7198  148.3963  154.2102 C.ar    1  UNL1        0.0339
     25 C         140.3989  148.4089  152.8728 C.ar    1  UNL1        0.0207
     26 C         140.6837  149.7131  152.1887 C.ar    1  UNL1        0.0987
     27 N         140.2896  151.0045  152.8420 N.ar    1  UNL1       -0.2416
     28 C         139.6106  150.9918  154.1794 C.ar    1  UNL1        0.1089
     29 C         139.3257  149.6877  154.8635 C.ar    1  UNL1        0.0871
     30 C         138.6466  149.6750  156.2010 C.1     1  UNL1        0.1018
     31 N         137.9675  149.6622  157.5383 N.1     1  UNL1       -0.1908
@<TRIPOS>BOND
     1    19    20    1
     2    20    21    1
     3    20    14    1
     4    14    15   ar
     5    15    16   ar
     6    16    17   ar
     7    17     7    1
     8     7     8    1
     9     8     9    1
    10     9    10    1
    11    10     1    1
    12     1     2   ar
    13     2     3   ar
    14     3     4   ar
    15     4    22    1
    16    22    23    1
    17    23    24    1
    18    24    25   ar
    19    25    26   ar
    20    26    27   ar
    21    27    28   ar
    22    28    29   ar
    23    29    30    1
    24    30    31    3
    25     4     5   ar
    26     5     6   ar
    27    10    11    1
    28    11    12    1
    29    11    13    1
    30    17    18   ar
    31    18    14   ar
    32    13     7    1
    33     6     1   ar
    34    29    24   ar
@<TRIPOS>MOLECULE
*****
 31 34 0 0 0
SMALL
GASTEIGER

@<TRIPOS>ATOM
      1 C         140.9842  138.5800  160.9314 C.ar    1  UNL1        0.2204
      2 N         139.9065  138.7639  159.9044 N.ar    1  UNL1       -0.2089
      3 C         140.1933  138.4869  158.4583 C.ar    1  UNL1        0.1402
      4 C         141.5579  138.0259  158.0394 C.ar    1  UNL1        0.1773
      5 C         142.6356  137.8421  159.0664 C.ar    1  UNL1        0.1402
      6 N         142.3487  138.1191  160.5124 N.ar    1  UNL1       -0.2089
      7 N         140.1236  139.4109  165.2695 N.pl3   1  UNL1       -0.2586
      8 C         139.9252  138.0308  164.7165 C.3     1  UNL1        0.1167
      9 C         140.2121  137.7538  163.2705 C.3     1  UNL1        0.1151
     10 N         140.6973  138.8570  162.3775 N.pl3   1  UNL1       -0.2764
     11 C         140.8957  140.2371  162.9304 C.3     1  UNL1        0.0955
     12 C         141.3809  141.3403  162.0374 C.3     1  UNL1        0.0233
     13 C         140.6088  140.5141  164.3764 C.3     1  UNL1        0.1149
     14 C         139.9787  140.5849  168.9663 C.ar    1  UNL1        0.1817
     15 N         138.8119  139.6435  168.9152 N.ar    1  UNL1       -0.0586
     16 O         138.7242  139.0892  167.5242 O.2     1  UNL1       -0.3167
     17 C         139.8367  139.6879  166.7156 C.ar    1  UNL1        0.3183
     18 N         140.6120  140.6123  167.6069 N.ar    1  UNL1       -0.1779
     19 C         141.5927  140.8737  170.9816 C.3     1  UNL1        0.0081
     20 C         140.4324  141.3623  170.1662 C.3     1  UNL1        0.0621
     21 C         139.7257  142.6283  170.5508 C.3     1  UNL1        0.0081
     22 O         141.8448  137.7489  156.5934 O.3     1  UNL1       -0.4675
     23 C         142.9503  136.8084  156.2149 C.3     1  UNL1        0.2329
     24 C         142.7232  135.3264  156.2621 C.ar    1  UNL1        0.0339
     25 C         143.5280  134.4737  157.1977 C.ar    1  UNL1        0.0207
     26 C         143.3009  132.9918  157.2448 C.ar    1  UNL1        0.0987
     27 N         142.2691  132.3625  156.3564 N.ar    1  UNL1       -0.2416
     28 C         141.4643  133.2152  155.4208 C.ar    1  UNL1        0.1089
     29 C         141.6914  134.6971  155.3737 C.ar    1  UNL1        0.0871
     30 C         140.8866  135.5498  154.4381 C.1     1  UNL1        0.1018
     31 N         140.0819  136.4025  153.5025 N.1     1  UNL1       -0.1908
@<TRIPOS>BOND
     1    19    20    1
     2    20    21    1
     3    20    14    1
     4    14    15   ar
     5    15    16   ar
     6    16    17   ar
     7    17     7    1
     8     7     8    1
     9     8     9    1
    10     9    10    1
    11    10     1    1
    12     1     2   ar
    13     2     3   ar
    14     3     4   ar
    15     4    22    1
    16    22    23    1
    17    23    24    1
    18    24    25   ar
    19    25    26   ar
    20    26    27   ar
    21    27    28   ar
    22    28    29   ar
    23    29    30    1
    24    30    31    3
    25     4     5   ar
    26     5     6   ar
    27    10    11    1
    28    11    12    1
    29    11    13    1
    30    17    18   ar
    31    18    14   ar
    32    13     7    1
    33     6     1   ar
    34    29    24   ar
@<TRIPOS>MOLECULE
*****
 31 34 0 0 0
SMALL
GASTEIGER

@<TRIPOS>ATOM
      1 C         140.9279  139.9341  162.4799 C.ar    1  UNL1        0.2204
      2 N         139.8726  139.2752  163.3178 N.ar    1  UNL1       -0.2089
      3 C         139.4293  139.9112  164.6021 C.ar    1  UNL1        0.1402
      4 C         140.0413  141.2059  165.0482 C.ar    1  UNL1        0.1773
      5 C         141.0967  141.8647  164.2102 C.ar    1  UNL1        0.1402
      6 N         141.5400  141.2288  162.9261 N.ar    1  UNL1       -0.2089
      7 N         142.2579  138.0264  158.6274 N.pl3   1  UNL1       -0.2586
      8 C         141.0162  138.8674  158.6583 C.3     1  UNL1        0.1167
      9 C         140.5730  139.5033  159.9425 C.3     1  UNL1        0.1151
     10 N         141.3713  139.2981  161.1957 N.pl3   1  UNL1       -0.2764
     11 C         142.6129  138.4571  161.1647 C.3     1  UNL1        0.0955
     12 C         143.4113  138.2520  162.4180 C.3     1  UNL1        0.0233
     13 C         143.0562  137.8213  159.8806 C.3     1  UNL1        0.1149
     14 C         142.8409  135.8986  155.4339 C.ar    1  UNL1        0.1817
     15 N         143.9262  136.9254  155.3001 N.ar    1  UNL1       -0.0586
     16 O         143.8398  137.8474  156.4801 O.2     1  UNL1       -0.3167
     17 C         142.7012  137.3905  157.3431 C.ar    1  UNL1        0.3183
     18 N         142.0838  136.1860  156.6965 N.ar    1  UNL1       -0.1779
     19 C         141.9881  135.0800  153.1203 C.3     1  UNL1        0.0081
     20 C         142.5616  134.7806  154.4736 C.3     1  UNL1        0.0621
     21 C         142.8560  133.3632  154.8665 C.3     1  UNL1        0.0081
     22 O         139.5980  141.8418  166.3324 O.3     1  UNL1       -0.4675
     23 C         140.6011  142.5157  167.2209 C.3     1  UNL1        0.2329
     24 C         141.2464  141.7510  168.3385 C.ar    1  UNL1        0.0339
     25 C         141.8982  140.4283  168.0638 C.ar    1  UNL1        0.0207
     26 C         142.5435  139.6637  169.1813 C.ar    1  UNL1        0.0987
     27 N         142.5370  140.2218  170.5736 N.ar    1  UNL1       -0.2416
     28 C         141.8852  141.5446  170.8483 C.ar    1  UNL1        0.1089
     29 C         141.2399  142.3092  169.7308 C.ar    1  UNL1        0.0871
     30 C         140.5880  143.6319  170.0055 C.1     1  UNL1        0.1018
     31 N         139.9362  144.9546  170.2802 N.1     1  UNL1       -0.1908
@<TRIPOS>BOND
     1    19    20    1
     2    20    21    1
     3    20    14    1
     4    14    15   ar
     5    15    16   ar
     6    16    17   ar
     7    17     7    1
     8     7     8    1
     9     8     9    1
    10     9    10    1
    11    10     1    1
    12     1     2   ar
    13     2     3   ar
    14     3     4   ar
    15     4    22    1
    16    22    23    1
    17    23    24    1
    18    24    25   ar
    19    25    26   ar
    20    26    27   ar
    21    27    28   ar
    22    28    29   ar
    23    29    30    1
    24    30    31    3
    25     4     5   ar
    26     5     6   ar
    27    10    11    1
    28    11    12    1
    29    11    13    1
    30    17    18   ar
    31    18    14   ar
    32    13     7    1
    33     6     1   ar
    34    29    24   ar
@<TRIPOS>MOLECULE
*****
 31 34 0 0 0
SMALL
GASTEIGER

@<TRIPOS>ATOM
      1 C         139.8267  140.3302  159.8754 C.ar    1  UNL1        0.2204
      2 N         140.0859  141.7666  159.5296 N.ar    1  UNL1       -0.2089
      3 C         139.3647  142.8570  160.2651 C.ar    1  UNL1        0.1402
      4 C         138.3844  142.5110  161.3464 C.ar    1  UNL1        0.1773
      5 C         138.1251  141.0746  161.6922 C.ar    1  UNL1        0.1402
      6 N         138.8463  139.9842  160.9567 N.ar    1  UNL1       -0.2089
      7 N         141.9900  137.0589  157.6689 N.pl3   1  UNL1       -0.2586
      8 C         140.6711  137.5611  157.1608 C.3     1  UNL1        0.1167
      9 C         139.9501  138.6515  157.8963 C.3     1  UNL1        0.1151
     10 N         140.5479  139.2397  159.1399 N.pl3   1  UNL1       -0.2764
     11 C         141.8667  138.7376  159.6481 C.3     1  UNL1        0.0955
     12 C         142.4646  139.3258  160.8917 C.3     1  UNL1        0.0233
     13 C         142.5878  137.6472  158.9126 C.3     1  UNL1        0.1149
     14 C         143.8788  133.8990  156.4387 C.ar    1  UNL1        0.1817
     15 N         143.7631  134.6820  155.1645 N.ar    1  UNL1       -0.0586
     16 O         143.0415  135.9610  155.4703 O.2     1  UNL1       -0.3167
     17 C         142.7112  135.9685  156.9334 C.ar    1  UNL1        0.3183
     18 N         143.2287  134.6941  157.5320 N.ar    1  UNL1       -0.1779
     19 C         144.4086  131.5345  155.5016 C.3     1  UNL1        0.0081
     20 C         144.5302  132.5566  156.5927 C.3     1  UNL1        0.0621
     21 C         145.3032  132.2364  157.8376 C.3     1  UNL1        0.0081
     22 O         137.6632  143.6014  162.0819 O.3     1  UNL1       -0.4675
     23 C         138.1028  143.9933  163.4614 C.3     1  UNL1        0.2329
     24 C         139.5634  144.0296  163.8011 C.ar    1  UNL1        0.0339
     25 C         140.1176  143.0901  164.8307 C.ar    1  UNL1        0.0207
     26 C         141.5781  143.1264  165.1704 C.ar    1  UNL1        0.0987
     27 N         142.4845  144.1023  164.4805 N.ar    1  UNL1       -0.2416
     28 C         141.9304  145.0419  163.4509 C.ar    1  UNL1        0.1089
     29 C         140.4699  145.0056  163.1112 C.ar    1  UNL1        0.0871
     30 C         139.9157  145.9452  162.0816 C.1     1  UNL1        0.1018
     31 N         139.3615  146.8848  161.0520 N.1     1  UNL1       -0.1908
@<TRIPOS>BOND
     1    19    20    1
     2    20    21    1
     3    20    14    1
     4    14    15   ar
     5    15    16   ar
     6    16    17   ar
     7    17     7    1
     8     7     8    1
     9     8     9    1
    10     9    10    1
    11    10     1    1
    12     1     2   ar
    13     2     3   ar
    14     3     4   ar
    15     4    22    1
    16    22    23    1
    17    23    24    1
    18    24    25   ar
    19    25    26   ar
    20    26    27   ar
    21    27    28   ar
    22    28    29   ar
    23    29    30    1
    24    30    31    3
    25     4     5   ar
    26     5     6   ar
    27    10    11    1
    28    11    12    1
    29    11    13    1
    30    17    18   ar
    31    18    14   ar
    32    13     7    1
    33     6     1   ar
    34    29    24   ar
@<TRIPOS>MOLECULE
*****
 31 34 0 0 0
SMALL
GASTEIGER

@<TRIPOS>ATOM
      1 C         138.8858  139.3693  164.7237 C.ar    1  UNL1        0.2204
      2 N         139.6521  140.4281  165.4597 N.ar    1  UNL1       -0.2089
      3 C         139.5386  140.5359  166.9515 C.ar    1  UNL1        0.1402
      4 C         138.6587  139.5848  167.7074 C.ar    1  UNL1        0.1773
      5 C         137.8924  138.5260  166.9713 C.ar    1  UNL1        0.1402
      6 N         138.0059  138.4182  165.4796 N.ar    1  UNL1       -0.2089
      7 N         139.2265  139.0460  160.2483 N.pl3   1  UNL1       -0.2586
      8 C         138.2422  139.9992  160.8586 C.3     1  UNL1        0.1167
      9 C         138.1287  140.1070  162.3504 C.3     1  UNL1        0.1151
     10 N         138.9994  139.2615  163.2319 N.pl3   1  UNL1       -0.2764
     11 C         139.9837  138.3083  162.6216 C.3     1  UNL1        0.0955
     12 C         140.8544  137.4628  163.5030 C.3     1  UNL1        0.0233
     13 C         140.0972  138.2005  161.1298 C.3     1  UNL1        0.1149
     14 C         140.1551  138.3895  156.5372 C.ar    1  UNL1        0.1817
     15 N         138.8743  139.1552  156.3844 N.ar    1  UNL1       -0.0586
     16 O         138.3706  139.4943  157.7560 O.2     1  UNL1       -0.3167
     17 C         139.3400  138.9382  158.7565 C.ar    1  UNL1        0.3183
     18 N         140.4429  138.2554  158.0032 N.ar    1  UNL1       -0.1779
     19 C         141.6694  136.5174  155.5613 C.3     1  UNL1        0.0081
     20 C         140.9998  137.8522  155.4201 C.3     1  UNL1        0.0621
     21 C         141.1749  138.6497  154.1619 C.3     1  UNL1        0.0081
     22 O         138.5451  139.6926  169.1991 O.3     1  UNL1       -0.4675
     23 C         139.2349  140.8093  169.9251 C.3     1  UNL1        0.2329
     24 C         140.7312  140.8243  170.0300 C.ar    1  UNL1        0.0339
     25 C         141.4937  139.5330  170.0620 C.ar    1  UNL1        0.0207
     26 C         142.9899  139.5480  170.1669 C.ar    1  UNL1        0.0987
     27 N         143.7236  140.8543  170.2399 N.ar    1  UNL1       -0.2416
     28 C         142.9611  142.1456  170.2080 C.ar    1  UNL1        0.1089
     29 C         141.4648  142.1306  170.1030 C.ar    1  UNL1        0.0871
     30 C         140.7022  143.4219  170.0711 C.1     1  UNL1        0.1018
     31 N         139.9396  144.7132  170.0391 N.1     1  UNL1       -0.1908
@<TRIPOS>BOND
     1    19    20    1
     2    20    21    1
     3    20    14    1
     4    14    15   ar
     5    15    16   ar
     6    16    17   ar
     7    17     7    1
     8     7     8    1
     9     8     9    1
    10     9    10    1
    11    10     1    1
    12     1     2   ar
    13     2     3   ar
    14     3     4   ar
    15     4    22    1
    16    22    23    1
    17    23    24    1
    18    24    25   ar
    19    25    26   ar
    20    26    27   ar
    21    27    28   ar
    22    28    29   ar
    23    29    30    1
    24    30    31    3
    25     4     5   ar
    26     5     6   ar
    27    10    11    1
    28    11    12    1
    29    11    13    1
    30    17    18   ar
    31    18    14   ar
    32    13     7    1
    33     6     1   ar
    34    29    24   ar
@<TRIPOS>MOLECULE
*****
 31 34 0 0 0
SMALL
GASTEIGER

@<TRIPOS>ATOM
      1 C         140.9047  144.0120  160.2675 C.ar    1  UNL1        0.2204
      2 N         141.7638  145.1729  159.8623 N.ar    1  UNL1       -0.2089
      3 C         141.5386  145.8476  158.5416 C.ar    1  UNL1        0.1402
      4 C         140.4543  145.3614  157.6262 C.ar    1  UNL1        0.1773
      5 C         139.5952  144.2005  158.0315 C.ar    1  UNL1        0.1402
      6 N         139.8204  143.5258  159.3522 N.ar    1  UNL1       -0.2089
      7 N         141.5802  141.9878  164.2294 N.pl3   1  UNL1       -0.2586
      8 C         142.3682  141.5627  163.0260 C.3     1  UNL1        0.1167
      9 C         142.1430  142.2374  161.7054 C.3     1  UNL1        0.1151
     10 N         141.1298  143.3373  161.5882 N.pl3   1  UNL1       -0.2764
     11 C         140.3419  143.7625  162.7917 C.3     1  UNL1        0.0955
     12 C         139.3287  144.8624  162.6745 C.3     1  UNL1        0.0233
     13 C         140.5671  143.0878  164.1122 C.3     1  UNL1        0.1149
     14 C         142.4452  140.9085  167.8560 C.ar    1  UNL1        0.1817
     15 N         141.8585  139.6411  167.3086 N.ar    1  UNL1       -0.0586
     16 O         141.4630  139.8912  165.8834 O.2     1  UNL1       -0.3167
     17 C         141.8054  141.3131  165.5501 C.ar    1  UNL1        0.3183
     18 N         142.4124  141.9418  166.7692 N.ar    1  UNL1       -0.1779
     19 C         142.7455  140.0563  170.2919 C.3     1  UNL1        0.0081
     20 C         142.9722  141.1075  169.2462 C.3     1  UNL1        0.0621
     21 C         143.7259  142.3578  169.5908 C.3     1  UNL1        0.0081
     22 O         140.2291  146.0361  156.3056 O.3     1  UNL1       -0.4675
     23 C         139.0655  146.9656  156.1271 C.3     1  UNL1        0.2329
     24 C         139.2158  148.2041  155.2942 C.ar    1  UNL1        0.0339
     25 C         139.7741  148.1105  153.9051 C.ar    1  UNL1        0.0207
     26 C         139.9244  149.3489  153.0723 C.ar    1  UNL1        0.0987
     27 N         139.5163  150.6809  153.6284 N.ar    1  UNL1       -0.2416
     28 C         138.9580  150.7745  155.0175 C.ar    1  UNL1        0.1089
     29 C         138.8077  149.5360  155.8503 C.ar    1  UNL1        0.0871
     30 C         138.2494  149.6296  157.2394 C.1     1  UNL1        0.1018
     31 N         137.6911  149.7230  158.6285 N.1     1  UNL1       -0.1908
@<TRIPOS>BOND
     1    19    20    1
     2    20    21    1
     3    20    14    1
     4    14    15   ar
     5    15    16   ar
     6    16    17   ar
     7    17     7    1
     8     7     8    1
     9     8     9    1
    10     9    10    1
    11    10     1    1
    12     1     2   ar
    13     2     3   ar
    14     3     4   ar
    15     4    22    1
    16    22    23    1
    17    23    24    1
    18    24    25   ar
    19    25    26   ar
    20    26    27   ar
    21    27    28   ar
    22    28    29   ar
    23    29    30    1
    24    30    31    3
    25     4     5   ar
    26     5     6   ar
    27    10    11    1
    28    11    12    1
    29    11    13    1
    30    17    18   ar
    31    18    14   ar
    32    13     7    1
    33     6     1   ar
    34    29    24   ar
