@<TRIPOS>MOLECULE
*****
 33 37 0 0 0
SMALL
GASTEIGER

@<TRIPOS>ATOM
      1 C         139.7691  144.6492  162.4739 C.ar    1  UNL1        0.2224
      2 N         140.6171  145.1357  163.6116 N.ar    1  UNL1       -0.1127
      3 N         140.5399  144.1216  164.7141 N.ar    1  UNL1       -0.1273
      4 C         139.6441  143.0082  164.2577 C.ar    1  UNL1        0.1704
      5 N         139.1678  143.3345  162.8733 N.ar    1  UNL1       -0.2796
      6 C         138.2554  142.5397  161.9867 C.3     1  UNL1        0.1574
      7 C         137.5940  141.2226  162.2656 C.3     1  UNL1        0.2299
      8 O         137.6817  140.3749  163.5000 O.3     1  UNL1       -0.4733
      9 C         138.4524  140.6349  164.7604 C.ar    1  UNL1        0.1415
     10 C         138.2662  139.5275  165.7548 C.ar    1  UNL1        0.0370
     11 C         138.9534  139.5922  167.0866 C.ar    1  UNL1        0.0031
     12 C         139.8267  140.7641  167.4238 C.ar    1  UNL1        0.0004
     13 C         140.0129  141.8715  166.4293 C.ar    1  UNL1        0.0061
     14 C         139.3257  141.8069  165.0976 C.ar    1  UNL1        0.0699
     15 C         140.5139  140.8287  168.7556 C.ar    1  UNL1        0.0031
     16 C         141.6731  139.9223  169.0462 C.ar    1  UNL1        0.0207
     17 C         142.3603  139.9868  170.3780 C.ar    1  UNL1        0.0989
     18 N         141.8882  140.9579  171.4192 N.ar    1  UNL1       -0.2423
     19 C         140.7290  141.8644  171.1286 C.ar    1  UNL1        0.0989
     20 C         140.0418  141.7998  169.7968 C.ar    1  UNL1        0.0207
     21 N         139.5593  145.3540  161.1665 N.pl3   1  UNL1       -0.2825
     22 H         138.8262  146.0039  161.0697 H       1  UNL1        0.1551
     23 C         141.1420  145.4608  157.5287 C.ar    1  UNL1        0.1480
     24 C         142.2807  144.4972  157.6865 C.ar    1  UNL1        0.0373
     25 C         142.5122  143.8191  159.0044 C.ar    1  UNL1        0.0044
     26 C         141.6051  144.1047  160.1643 C.ar    1  UNL1        0.0149
     27 C         140.4664  145.0684  160.0065 C.ar    1  UNL1        0.0535
     28 C         140.2349  145.7464  158.6886 C.ar    1  UNL1        0.0518
     29 O         140.9105  146.1388  156.2108 O.3     1  UNL1       -0.4044
     30 F         138.1265  146.3898  155.1216 F       1  UNL1       -0.1328
     31 C         139.5186  146.2643  155.6662 C.3     1  UNL1        0.5753
     32 F         139.6189  147.7584  155.7540 F       1  UNL1       -0.1328
     33 F         139.4181  144.7703  155.5784 F       1  UNL1       -0.1328
@<TRIPOS>BOND
     1    30    31    1
     2    31    32    1
     3    31    33    1
     4    31    29    1
     5    29    23    1
     6    23    24   ar
     7    24    25   ar
     8    25    26   ar
     9    26    27   ar
    10    27    21    1
    11    21     1    1
    12     1     2   ar
    13     2     3   ar
    14     3     4   ar
    15     4     5   ar
    16     5     6    1
    17     6     7    1
    18     7     8    1
    19     8     9    1
    20     9    10   ar
    21    10    11   ar
    22    11    12   ar
    23    12    15    1
    24    15    16   ar
    25    16    17   ar
    26    17    18   ar
    27    18    19   ar
    28    19    20   ar
    29    12    13   ar
    30    13    14   ar
    31    27    28   ar
    32    28    23   ar
    33     5     1   ar
    34    14     9   ar
    35    14     4    1
    36    20    15   ar
    37    21    22    1
@<TRIPOS>MOLECULE
*****
 33 37 0 0 0
SMALL
GASTEIGER

@<TRIPOS>ATOM
      1 C         139.7986  144.4922  162.4155 C.ar    1  UNL1        0.2224
      2 N         140.6369  145.0063  163.5482 N.ar    1  UNL1       -0.1127
      3 N         140.5525  144.0177  164.6732 N.ar    1  UNL1       -0.1273
      4 C         139.6621  142.8926  164.2357 C.ar    1  UNL1        0.1704
      5 N         139.1962  143.1860  162.8404 N.ar    1  UNL1       -0.2796
      6 C         138.2920  142.3694  161.9653 C.3     1  UNL1        0.1574
      7 C         137.6305  141.0579  162.2693 C.3     1  UNL1        0.2299
      8 O         137.7098  140.2391  163.5236 O.3     1  UNL1       -0.4733
      9 C         138.4701  140.5294  164.7836 C.ar    1  UNL1        0.1415
     10 C         138.2778  139.4450  165.8019 C.ar    1  UNL1        0.0370
     11 C         138.9544  139.5416  167.1372 C.ar    1  UNL1        0.0031
     12 C         139.8232  140.7225  167.4541 C.ar    1  UNL1        0.0004
     13 C         140.0155  141.8069  166.4358 C.ar    1  UNL1        0.0061
     14 C         139.3390  141.7104  165.1005 C.ar    1  UNL1        0.0699
     15 C         140.4998  140.8190  168.7894 C.ar    1  UNL1        0.0031
     16 C         141.6426  139.9050  169.1190 C.ar    1  UNL1        0.0207
     17 C         142.3192  140.0015  170.4543 C.ar    1  UNL1        0.0989
     18 N         141.8529  141.0120  171.4600 N.ar    1  UNL1       -0.2423
     19 C         140.7101  141.9261  171.1303 C.ar    1  UNL1        0.0989
     20 C         140.0336  141.8296  169.7951 C.ar    1  UNL1        0.0207
     21 N         139.5980  145.1662  161.0905 N.pl3   1  UNL1       -0.2825
     22 H         138.8382  145.7784  160.9596 H       1  UNL1        0.1551
     23 C         142.6591  143.7014  159.0328 C.ar    1  UNL1        0.1480
     24 C         142.4692  144.3897  157.7136 C.ar    1  UNL1        0.0373
     25 C         141.3222  145.3368  157.5201 C.ar    1  UNL1        0.0044
     26 C         140.3652  145.5956  158.6457 C.ar    1  UNL1        0.0149
     27 C         140.5550  144.9074  159.9649 C.ar    1  UNL1        0.0535
     28 C         141.7020  143.9602  160.1584 C.ar    1  UNL1        0.0518
     29 O         143.8061  142.7542  159.2263 O.3     1  UNL1       -0.4044
     30 F         144.1300  141.3033  161.8321 F       1  UNL1       -0.1328
     31 C         143.9680  142.0288  160.5291 C.3     1  UNL1        0.5753
     32 F         144.8055  143.1574  161.0536 F       1  UNL1       -0.1328
     33 F         143.1306  140.9001  160.0048 F       1  UNL1       -0.1328
@<TRIPOS>BOND
     1    30    31    1
     2    31    32    1
     3    31    33    1
     4    31    29    1
     5    29    23    1
     6    23    24   ar
     7    24    25   ar
     8    25    26   ar
     9    26    27   ar
    10    27    21    1
    11    21     1    1
    12     1     2   ar
    13     2     3   ar
    14     3     4   ar
    15     4     5   ar
    16     5     6    1
    17     6     7    1
    18     7     8    1
    19     8     9    1
    20     9    10   ar
    21    10    11   ar
    22    11    12   ar
    23    12    15    1
    24    15    16   ar
    25    16    17   ar
    26    17    18   ar
    27    18    19   ar
    28    19    20   ar
    29    12    13   ar
    30    13    14   ar
    31    27    28   ar
    32    28    23   ar
    33     5     1   ar
    34    14     9   ar
    35    14     4    1
    36    20    15   ar
    37    21    22    1
@<TRIPOS>MOLECULE
*****
 33 37 0 0 0
SMALL
GASTEIGER

@<TRIPOS>ATOM
      1 C         143.5562  138.6397  162.8411 C.ar    1  UNL1        0.2224
      2 N         144.2756  139.3669  163.9382 N.ar    1  UNL1       -0.1127
      3 N         143.2952  139.6254  165.0436 N.ar    1  UNL1       -0.1273
      4 C         141.9698  139.0579  164.6296 C.ar    1  UNL1        0.1704
      5 N         142.1312  138.4487  163.2684 N.ar    1  UNL1       -0.2796
      6 C         141.1012  137.7571  162.4253 C.3     1  UNL1        0.1574
      7 C         139.6555  137.5039  162.7350 C.3     1  UNL1        0.2299
      8 O         138.8828  137.8798  163.9644 O.3     1  UNL1       -0.4733
      9 C         139.3648  138.6017  165.1878 C.ar    1  UNL1        0.1415
     10 C         138.2630  138.7771  166.1904 C.ar    1  UNL1        0.0370
     11 C         138.5350  139.4767  167.4890 C.ar    1  UNL1        0.0031
     12 C         139.9089  140.0011  167.7850 C.ar    1  UNL1        0.0004
     13 C         141.0107  139.8257  166.7824 C.ar    1  UNL1        0.0061
     14 C         140.7386  139.1260  165.4838 C.ar    1  UNL1        0.0699
     15 C         140.1809  140.7008  169.0837 C.ar    1  UNL1        0.0031
     16 C         140.7128  139.9287  170.2545 C.ar    1  UNL1        0.0207
     17 C         140.9848  140.6285  171.5532 C.ar    1  UNL1        0.0989
     18 N         140.7248  142.1002  171.6809 N.ar    1  UNL1       -0.2423
     19 C         140.1928  142.8723  170.5100 C.ar    1  UNL1        0.0989
     20 C         139.9209  142.1726  169.2114 C.ar    1  UNL1        0.0207
     21 N         144.1566  138.1835  161.5444 N.pl3   1  UNL1       -0.2825
     22 H         144.9421  137.5900  161.5474 H       1  UNL1        0.1551
     23 C         142.4905  138.0640  157.9444 C.ar    1  UNL1        0.1480
     24 C         142.3673  139.5276  157.6403 C.ar    1  UNL1        0.0373
     25 C         142.8406  140.5433  158.6376 C.ar    1  UNL1        0.0044
     26 C         143.4370  140.0952  159.9389 C.ar    1  UNL1        0.0149
     27 C         143.5602  138.6315  160.2431 C.ar    1  UNL1        0.0535
     28 C         143.0869  137.6159  159.2458 C.ar    1  UNL1        0.0518
     29 O         142.0172  137.0483  156.9471 O.3     1  UNL1       -0.4044
     30 F         143.9985  135.2801  155.5513 F       1  UNL1       -0.1328
     31 C         143.0078  136.1643  156.2493 C.3     1  UNL1        0.5753
     32 F         143.4157  137.3121  155.3740 F       1  UNL1       -0.1328
     33 F         142.6000  135.0163  157.1245 F       1  UNL1       -0.1328
@<TRIPOS>BOND
     1    30    31    1
     2    31    32    1
     3    31    33    1
     4    31    29    1
     5    29    23    1
     6    23    24   ar
     7    24    25   ar
     8    25    26   ar
     9    26    27   ar
    10    27    21    1
    11    21     1    1
    12     1     2   ar
    13     2     3   ar
    14     3     4   ar
    15     4     5   ar
    16     5     6    1
    17     6     7    1
    18     7     8    1
    19     8     9    1
    20     9    10   ar
    21    10    11   ar
    22    11    12   ar
    23    12    15    1
    24    15    16   ar
    25    16    17   ar
    26    17    18   ar
    27    18    19   ar
    28    19    20   ar
    29    12    13   ar
    30    13    14   ar
    31    27    28   ar
    32    28    23   ar
    33     5     1   ar
    34    14     9   ar
    35    14     4    1
    36    20    15   ar
    37    21    22    1
@<TRIPOS>MOLECULE
*****
 33 37 0 0 0
SMALL
GASTEIGER

@<TRIPOS>ATOM
      1 C         143.5555  138.8044  162.7426 C.ar    1  UNL1        0.2224
      2 N         144.2640  139.5349  163.8446 N.ar    1  UNL1       -0.1127
      3 N         143.2854  139.7528  164.9603 N.ar    1  UNL1       -0.1273
      4 C         141.9720  139.1569  164.5478 C.ar    1  UNL1        0.1704
      5 N         142.1391  138.5708  163.1772 N.ar    1  UNL1       -0.2796
      6 C         141.1211  137.8644  162.3318 C.3     1  UNL1        0.1574
      7 C         139.6847  137.5696  162.6481 C.3     1  UNL1        0.2299
      8 O         138.9117  137.9085  163.8880 O.3     1  UNL1       -0.4733
      9 C         139.3839  138.6259  165.1179 C.ar    1  UNL1        0.1415
     10 C         138.2853  138.7589  166.1305 C.ar    1  UNL1        0.0370
     11 C         138.5488  139.4475  167.4367 C.ar    1  UNL1        0.0031
     12 C         139.9108  140.0031  167.7304 C.ar    1  UNL1        0.0004
     13 C         141.0094  139.8701  166.7177 C.ar    1  UNL1        0.0061
     14 C         140.7459  139.1815  165.4115 C.ar    1  UNL1        0.0699
     15 C         140.1743  140.6918  169.0367 C.ar    1  UNL1        0.0031
     16 C         139.9301  142.1657  169.1701 C.ar    1  UNL1        0.0207
     17 C         140.1935  142.8544  170.4765 C.ar    1  UNL1        0.0989
     18 N         140.7011  142.0691  171.6493 N.ar    1  UNL1       -0.2423
     19 C         140.9453  140.5950  171.5158 C.ar    1  UNL1        0.0989
     20 C         140.6819  139.9065  170.2095 C.ar    1  UNL1        0.0207
     21 N         144.1579  138.3817  161.4355 N.pl3   1  UNL1       -0.2825
     22 H         144.8295  137.6622  161.4127 H       1  UNL1        0.1551
     23 C         143.6684  141.1670  158.6512 C.ar    1  UNL1        0.1480
     24 C         142.8951  140.4023  157.6181 C.ar    1  UNL1        0.0373
     25 C         142.5427  138.9641  157.8575 C.ar    1  UNL1        0.0044
     26 C         142.9636  138.2906  159.1299 C.ar    1  UNL1        0.0149
     27 C         143.7369  139.0552  160.1630 C.ar    1  UNL1        0.0535
     28 C         144.0894  140.4935  159.9236 C.ar    1  UNL1        0.0518
     29 O         144.0209  142.6052  158.4117 O.3     1  UNL1       -0.4044
     30 F         141.8689  144.6955  158.4025 F       1  UNL1       -0.1328
     31 C         142.9449  143.6503  158.4071 C.3     1  UNL1        0.5753
     32 F         142.9924  143.6927  156.9084 F       1  UNL1       -0.1328
     33 F         142.8973  143.6081  159.9057 F       1  UNL1       -0.1328
@<TRIPOS>BOND
     1    30    31    1
     2    31    32    1
     3    31    33    1
     4    31    29    1
     5    29    23    1
     6    23    24   ar
     7    24    25   ar
     8    25    26   ar
     9    26    27   ar
    10    27    21    1
    11    21     1    1
    12     1     2   ar
    13     2     3   ar
    14     3     4   ar
    15     4     5   ar
    16     5     6    1
    17     6     7    1
    18     7     8    1
    19     8     9    1
    20     9    10   ar
    21    10    11   ar
    22    11    12   ar
    23    12    15    1
    24    15    16   ar
    25    16    17   ar
    26    17    18   ar
    27    18    19   ar
    28    19    20   ar
    29    12    13   ar
    30    13    14   ar
    31    27    28   ar
    32    28    23   ar
    33     5     1   ar
    34    14     9   ar
    35    14     4    1
    36    20    15   ar
    37    21    22    1
@<TRIPOS>MOLECULE
*****
 33 37 0 0 0
SMALL
GASTEIGER

@<TRIPOS>ATOM
      1 C         143.2655  143.2541  161.8829 C.ar    1  UNL1        0.2224
      2 N         142.9190  144.2162  162.9803 N.ar    1  UNL1       -0.1127
      3 N         142.8203  143.4422  164.2614 N.ar    1  UNL1       -0.1273
      4 C         143.1060  142.0017  163.9557 C.ar    1  UNL1        0.1704
      5 N         143.3811  141.8855  162.4858 N.ar    1  UNL1       -0.2796
      6 C         143.7175  140.6583  161.6915 C.3     1  UNL1        0.1574
      7 C         143.8619  139.2443  162.1709 C.3     1  UNL1        0.2299
      8 O         143.7055  138.7084  163.5631 O.3     1  UNL1       -0.4733
      9 C         143.3661  139.4538  164.8197 C.ar    1  UNL1        0.1415
     10 C         143.3079  138.5346  166.0036 C.ar    1  UNL1        0.0370
     11 C         142.9828  139.0810  167.3621 C.ar    1  UNL1        0.0031
     12 C         142.7160  140.5467  167.5368 C.ar    1  UNL1        0.0004
     13 C         142.7742  141.4660  166.3530 C.ar    1  UNL1        0.0061
     14 C         143.0993  140.9195  164.9945 C.ar    1  UNL1        0.0699
     15 C         142.3909  141.0931  168.8955 C.ar    1  UNL1        0.0031
     16 C         142.9977  142.3880  169.3480 C.ar    1  UNL1        0.0207
     17 C         142.6727  142.9344  170.7066 C.ar    1  UNL1        0.0989
     18 N         141.7407  142.1858  171.6127 N.ar    1  UNL1       -0.2423
     19 C         141.1338  140.8908  171.1602 C.ar    1  UNL1        0.0989
     20 C         141.4589  140.3445  169.8016 C.ar    1  UNL1        0.0207
     21 N         143.4620  143.5999  160.4366 N.pl3   1  UNL1       -0.2825
     22 H         144.3588  143.8326  160.1035 H       1  UNL1        0.1551
     23 C         139.7428  143.3127  159.0821 C.ar    1  UNL1        0.1480
     24 C         139.9526  143.5736  157.6200 C.ar    1  UNL1        0.0373
     25 C         141.3324  143.8432  157.0967 C.ar    1  UNL1        0.0044
     26 C         142.5021  143.8520  158.0355 C.ar    1  UNL1        0.0149
     27 C         142.2923  143.5911  159.4977 C.ar    1  UNL1        0.0535
     28 C         140.9126  143.3215  160.0210 C.ar    1  UNL1        0.0518
     29 O         138.3631  143.0431  159.6054 O.3     1  UNL1       -0.4044
     30 F         137.9429  140.9626  161.7256 F       1  UNL1       -0.1328
     31 C         138.1530  142.0029  160.6654 C.3     1  UNL1        0.5753
     32 F         137.6713  143.0634  161.6107 F       1  UNL1       -0.1328
     33 F         138.6347  140.9424  159.7203 F       1  UNL1       -0.1328
@<TRIPOS>BOND
     1    30    31    1
     2    31    32    1
     3    31    33    1
     4    31    29    1
     5    29    23    1
     6    23    24   ar
     7    24    25   ar
     8    25    26   ar
     9    26    27   ar
    10    27    21    1
    11    21     1    1
    12     1     2   ar
    13     2     3   ar
    14     3     4   ar
    15     4     5   ar
    16     5     6    1
    17     6     7    1
    18     7     8    1
    19     8     9    1
    20     9    10   ar
    21    10    11   ar
    22    11    12   ar
    23    12    15    1
    24    15    16   ar
    25    16    17   ar
    26    17    18   ar
    27    18    19   ar
    28    19    20   ar
    29    12    13   ar
    30    13    14   ar
    31    27    28   ar
    32    28    23   ar
    33     5     1   ar
    34    14     9   ar
    35    14     4    1
    36    20    15   ar
    37    21    22    1
@<TRIPOS>MOLECULE
*****
 33 37 0 0 0
SMALL
GASTEIGER

@<TRIPOS>ATOM
      1 C         138.3849  140.2616  162.3951 C.ar    1  UNL1        0.2224
      2 N         137.9086  141.1649  163.4938 N.ar    1  UNL1       -0.1127
      3 N         138.8379  141.0056  164.6604 N.ar    1  UNL1       -0.1273
      4 C         139.8886  140.0038  164.2826 C.ar    1  UNL1        0.1704
      5 N         139.6085  139.5441  162.8826 N.ar    1  UNL1       -0.2796
      6 C         140.3687  138.5507  162.0548 C.3     1  UNL1        0.1574
      7 C         141.5968  137.7717  162.4226 C.3     1  UNL1        0.2299
      8 O         142.3678  137.7938  163.7090 O.3     1  UNL1       -0.4733
      9 C         142.1014  138.6003  164.9454 C.ar    1  UNL1        0.1415
     10 C         143.1199  138.3225  166.0110 C.ar    1  UNL1        0.0370
     11 C         143.0350  139.0284  167.3318 C.ar    1  UNL1        0.0031
     12 C         141.9316  140.0119  167.5871 C.ar    1  UNL1        0.0004
     13 C         140.9131  140.2896  166.5215 C.ar    1  UNL1        0.0061
     14 C         140.9980  139.5838  165.2007 C.ar    1  UNL1        0.0699
     15 C         141.8468  140.7177  168.9080 C.ar    1  UNL1        0.0031
     16 C         140.9252  140.2049  169.9745 C.ar    1  UNL1        0.0207
     17 C         140.8404  140.9107  171.2955 C.ar    1  UNL1        0.0989
     18 N         141.6772  142.1294  171.5497 N.ar    1  UNL1       -0.2423
     19 C         142.5988  142.6422  170.4830 C.ar    1  UNL1        0.0989
     20 C         142.6836  141.9364  169.1622 C.ar    1  UNL1        0.0207
     21 N         137.7490  140.1036  161.0457 N.pl3   1  UNL1       -0.2825
     22 H         137.0570  139.4177  160.9049 H       1  UNL1        0.1551
     23 C         139.1658  143.2324  159.0575 C.ar    1  UNL1        0.1480
     24 C         139.0046  142.7650  157.6413 C.ar    1  UNL1        0.0373
     25 C         138.4249  141.4105  157.3599 C.ar    1  UNL1        0.0044
     26 C         138.0064  140.5234  158.4947 C.ar    1  UNL1        0.0149
     27 C         138.1675  140.9907  159.9109 C.ar    1  UNL1        0.0535
     28 C         138.7472  142.3453  160.1922 C.ar    1  UNL1        0.0518
     29 O         139.7455  144.5870  159.3388 O.3     1  UNL1       -0.4044
     30 F         141.6936  144.9465  161.5918 F       1  UNL1       -0.1328
     31 C         140.7195  144.7667  160.4652 C.3     1  UNL1        0.5753
     32 F         139.6573  145.4497  161.2748 F       1  UNL1       -0.1328
     33 F         141.7818  144.0838  159.6558 F       1  UNL1       -0.1328
@<TRIPOS>BOND
     1    30    31    1
     2    31    32    1
     3    31    33    1
     4    31    29    1
     5    29    23    1
     6    23    24   ar
     7    24    25   ar
     8    25    26   ar
     9    26    27   ar
    10    27    21    1
    11    21     1    1
    12     1     2   ar
    13     2     3   ar
    14     3     4   ar
    15     4     5   ar
    16     5     6    1
    17     6     7    1
    18     7     8    1
    19     8     9    1
    20     9    10   ar
    21    10    11   ar
    22    11    12   ar
    23    12    15    1
    24    15    16   ar
    25    16    17   ar
    26    17    18   ar
    27    18    19   ar
    28    19    20   ar
    29    12    13   ar
    30    13    14   ar
    31    27    28   ar
    32    28    23   ar
    33     5     1   ar
    34    14     9   ar
    35    14     4    1
    36    20    15   ar
    37    21    22    1
@<TRIPOS>MOLECULE
*****
 33 37 0 0 0
SMALL
GASTEIGER

@<TRIPOS>ATOM
      1 C         144.5756  142.5792  161.1644 C.ar    1  UNL1        0.2224
      2 N         144.4084  143.7763  162.0526 N.ar    1  UNL1       -0.1127
      3 N         143.9185  143.2985  163.3873 N.ar    1  UNL1       -0.1273
      4 C         143.7830  141.8059  163.3241 C.ar    1  UNL1        0.1704
      5 N         144.1891  141.3615  161.9502 N.ar    1  UNL1       -0.2796
      6 C         144.2276  139.9703  161.3906 C.3     1  UNL1        0.1574
      7 C         143.8696  138.6799  162.0667 C.3     1  UNL1        0.2299
      8 O         143.3847  138.4623  163.4693 O.3     1  UNL1       -0.4733
      9 C         143.1379  139.4810  164.5423 C.ar    1  UNL1        0.1415
     10 C         142.6535  138.8376  165.8078 C.ar    1  UNL1        0.0370
     11 C         142.3464  139.6824  167.0086 C.ar    1  UNL1        0.0031
     12 C         142.5237  141.1705  166.9440 C.ar    1  UNL1        0.0004
     13 C         143.0081  141.8138  165.6785 C.ar    1  UNL1        0.0061
     14 C         143.3152  140.9691  164.4777 C.ar    1  UNL1        0.0699
     15 C         142.2166  142.0152  168.1449 C.ar    1  UNL1        0.0031
     16 C         143.2591  142.2213  169.2034 C.ar    1  UNL1        0.0207
     17 C         142.9520  143.0660  170.4044 C.ar    1  UNL1        0.0989
     18 N         141.6022  143.7047  170.5467 N.ar    1  UNL1       -0.2423
     19 C         140.5596  143.4987  169.4881 C.ar    1  UNL1        0.0989
     20 C         140.8668  142.6539  168.2872 C.ar    1  UNL1        0.0207
     21 N         145.0466  142.5968  159.7403 N.pl3   1  UNL1       -0.2825
     22 H         146.0076  142.5252  159.5388 H       1  UNL1        0.1551
     23 C         141.9002  143.7918  157.6376 C.ar    1  UNL1        0.1480
     24 C         142.0672  142.9767  156.3894 C.ar    1  UNL1        0.0373
     25 C         143.2274  142.0350  156.2583 C.ar    1  UNL1        0.0044
     26 C         144.2205  141.9084  157.3753 C.ar    1  UNL1        0.0149
     27 C         144.0535  142.7234  158.6234 C.ar    1  UNL1        0.0535
     28 C         142.8933  143.6652  158.7545 C.ar    1  UNL1        0.0518
     29 O         140.7400  144.7335  157.7687 O.3     1  UNL1       -0.4044
     30 F         140.4074  146.9852  155.8144 F       1  UNL1       -0.1328
     31 C         140.5736  145.8593  156.7916 C.3     1  UNL1        0.5753
     32 F         141.9503  146.3526  157.1256 F       1  UNL1       -0.1328
     33 F         139.1970  145.3661  156.4575 F       1  UNL1       -0.1328
@<TRIPOS>BOND
     1    30    31    1
     2    31    32    1
     3    31    33    1
     4    31    29    1
     5    29    23    1
     6    23    24   ar
     7    24    25   ar
     8    25    26   ar
     9    26    27   ar
    10    27    21    1
    11    21     1    1
    12     1     2   ar
    13     2     3   ar
    14     3     4   ar
    15     4     5   ar
    16     5     6    1
    17     6     7    1
    18     7     8    1
    19     8     9    1
    20     9    10   ar
    21    10    11   ar
    22    11    12   ar
    23    12    15    1
    24    15    16   ar
    25    16    17   ar
    26    17    18   ar
    27    18    19   ar
    28    19    20   ar
    29    12    13   ar
    30    13    14   ar
    31    27    28   ar
    32    28    23   ar
    33     5     1   ar
    34    14     9   ar
    35    14     4    1
    36    20    15   ar
    37    21    22    1
@<TRIPOS>MOLECULE
*****
 33 37 0 0 0
SMALL
GASTEIGER

@<TRIPOS>ATOM
      1 C         142.7218  143.5983  162.0308 C.ar    1  UNL1        0.2224
      2 N         142.0745  144.4698  163.0659 N.ar    1  UNL1       -0.1127
      3 N         141.9967  143.6903  164.3452 N.ar    1  UNL1       -0.1273
      4 C         142.5960  142.3371  164.1005 C.ar    1  UNL1        0.1704
      5 N         143.0440  142.2804  162.6701 N.ar    1  UNL1       -0.2796
      6 C         143.7022  141.1469  161.9406 C.3     1  UNL1        0.1574
      7 C         144.0749  139.7904  162.4612 C.3     1  UNL1        0.2299
      8 O         143.8813  139.2323  163.8400 O.3     1  UNL1       -0.4733
      9 C         143.2674  139.8928  165.0388 C.ar    1  UNL1        0.1415
     10 C         143.2685  138.9793  166.2284 C.ar    1  UNL1        0.0370
     11 C         142.6975  139.4475  167.5341 C.ar    1  UNL1        0.0031
     12 C         142.1254  140.8293  167.6500 C.ar    1  UNL1        0.0004
     13 C         142.1243  141.7429  166.4603 C.ar    1  UNL1        0.0061
     14 C         142.6953  141.2746  165.1547 C.ar    1  UNL1        0.0699
     15 C         141.5544  141.2975  168.9557 C.ar    1  UNL1        0.0031
     16 C         140.7730  142.5765  169.0170 C.ar    1  UNL1        0.0207
     17 C         140.2020  143.0447  170.3227 C.ar    1  UNL1        0.0989
     18 N         140.4124  142.2339  171.5670 N.ar    1  UNL1       -0.2423
     19 C         141.1938  140.9550  171.5057 C.ar    1  UNL1        0.0989
     20 C         141.7648  140.4868  170.2000 C.ar    1  UNL1        0.0207
     21 N         142.9982  143.9783  160.6062 N.pl3   1  UNL1       -0.2825
     22 H         143.9103  144.2264  160.3311 H       1  UNL1        0.1551
     23 C         140.3200  145.2729  157.9793 C.ar    1  UNL1        0.1480
     24 C         139.6584  143.9840  157.5903 C.ar    1  UNL1        0.0373
     25 C         140.1102  142.6933  158.2067 C.ar    1  UNL1        0.0044
     26 C         141.2234  142.6914  159.2120 C.ar    1  UNL1        0.0149
     27 C         141.8850  143.9802  159.6009 C.ar    1  UNL1        0.0535
     28 C         141.4332  145.2710  158.9846 C.ar    1  UNL1        0.0518
     29 O         139.8682  146.5636  157.3629 O.3     1  UNL1       -0.4044
     30 F         139.8526  146.8767  154.3793 F       1  UNL1       -0.1328
     31 C         139.8604  146.7201  155.8712 C.3     1  UNL1        0.5753
     32 F         138.3988  147.0548  155.9138 F       1  UNL1       -0.1328
     33 F         141.3220  146.3856  155.8284 F       1  UNL1       -0.1328
@<TRIPOS>BOND
     1    30    31    1
     2    31    32    1
     3    31    33    1
     4    31    29    1
     5    29    23    1
     6    23    24   ar
     7    24    25   ar
     8    25    26   ar
     9    26    27   ar
    10    27    21    1
    11    21     1    1
    12     1     2   ar
    13     2     3   ar
    14     3     4   ar
    15     4     5   ar
    16     5     6    1
    17     6     7    1
    18     7     8    1
    19     8     9    1
    20     9    10   ar
    21    10    11   ar
    22    11    12   ar
    23    12    15    1
    24    15    16   ar
    25    16    17   ar
    26    17    18   ar
    27    18    19   ar
    28    19    20   ar
    29    12    13   ar
    30    13    14   ar
    31    27    28   ar
    32    28    23   ar
    33     5     1   ar
    34    14     9   ar
    35    14     4    1
    36    20    15   ar
    37    21    22    1
@<TRIPOS>MOLECULE
*****
 33 37 0 0 0
SMALL
GASTEIGER

@<TRIPOS>ATOM
      1 C         140.7139  142.7259  161.5987 C.ar    1  UNL1        0.2224
      2 N         141.4256  143.5367  162.6408 N.ar    1  UNL1       -0.1127
      3 N         141.1042  142.9506  163.9836 N.ar    1  UNL1       -0.1273
      4 C         140.1938  141.7775  163.7713 C.ar    1  UNL1        0.1704
      5 N         139.9526  141.6387  162.2974 N.ar    1  UNL1       -0.2796
      6 C         139.1150  140.6230  161.5784 C.3     1  UNL1        0.1574
      7 C         138.3118  139.4954  162.1557 C.3     1  UNL1        0.2299
      8 O         138.1478  139.1050  163.5947 O.3     1  UNL1       -0.4733
      9 C         138.7465  139.7456  164.8117 C.ar    1  UNL1        0.1415
     10 C         138.3255  139.0392  166.0662 C.ar    1  UNL1        0.0370
     11 C         138.8151  139.5221  167.3992 C.ar    1  UNL1        0.0031
     12 C         139.7256  140.7115  167.4778 C.ar    1  UNL1        0.0004
     13 C         140.1466  141.4180  166.2234 C.ar    1  UNL1        0.0061
     14 C         139.6570  140.9350  164.8904 C.ar    1  UNL1        0.0699
     15 C         140.2152  141.1945  168.8109 C.ar    1  UNL1        0.0031
     16 C         140.5251  142.6479  169.0145 C.ar    1  UNL1        0.0207
     17 C         141.0147  143.1308  170.3476 C.ar    1  UNL1        0.0989
     18 N         141.1943  142.1603  171.4771 N.ar    1  UNL1       -0.2423
     19 C         140.8844  140.7068  171.2735 C.ar    1  UNL1        0.0989
     20 C         140.3948  140.2239  169.9404 C.ar    1  UNL1        0.0207
     21 N         140.7561  142.9611  160.1178 N.pl3   1  UNL1       -0.2825
     22 H         140.1834  143.6517  159.7125 H       1  UNL1        0.1551
     23 C         143.4021  140.2240  158.9968 C.ar    1  UNL1        0.1480
     24 C         143.5005  140.5098  157.5276 C.ar    1  UNL1        0.0373
     25 C         142.6840  141.6127  156.9218 C.ar    1  UNL1        0.0044
     26 C         141.7692  142.4298  157.7852 C.ar    1  UNL1        0.0149
     27 C         141.6709  142.1440  159.2544 C.ar    1  UNL1        0.0535
     28 C         142.4874  141.0411  159.8602 C.ar    1  UNL1        0.0518
     29 O         144.2186  139.1211  159.6026 O.3     1  UNL1       -0.4044
     30 F         143.2106  137.6647  162.0240 F       1  UNL1       -0.1328
     31 C         143.7146  138.3929  160.8132 C.3     1  UNL1        0.5753
     32 F         144.5162  139.3040  161.6950 F       1  UNL1       -0.1328
     33 F         142.9131  137.4818  159.9316 F       1  UNL1       -0.1328
@<TRIPOS>BOND
     1    30    31    1
     2    31    32    1
     3    31    33    1
     4    31    29    1
     5    29    23    1
     6    23    24   ar
     7    24    25   ar
     8    25    26   ar
     9    26    27   ar
    10    27    21    1
    11    21     1    1
    12     1     2   ar
    13     2     3   ar
    14     3     4   ar
    15     4     5   ar
    16     5     6    1
    17     6     7    1
    18     7     8    1
    19     8     9    1
    20     9    10   ar
    21    10    11   ar
    22    11    12   ar
    23    12    15    1
    24    15    16   ar
    25    16    17   ar
    26    17    18   ar
    27    18    19   ar
    28    19    20   ar
    29    12    13   ar
    30    13    14   ar
    31    27    28   ar
    32    28    23   ar
    33     5     1   ar
    34    14     9   ar
    35    14     4    1
    36    20    15   ar
    37    21    22    1
