@<TRIPOS>MOLECULE
*****
 34 36 0 0 0
SMALL
GASTEIGER

@<TRIPOS>ATOM
      1 C         141.1289  143.2420  164.6459 C.ar    1  UNL1        0.1143
      2 C         140.3425  144.3348  163.9847 C.ar    1  UNL1        0.0850
      3 CL        139.2987  145.1901  164.6396 Cl      1  UNL1       -0.0799
      4 C         140.7832  144.4223  162.5535 C.ar    1  UNL1        0.0574
      5 C         140.3572  145.3136  161.4248 C.ar    1  UNL1        0.0631
      6 CL        139.2984  146.3524  161.6481 Cl      1  UNL1       -0.0821
      7 C         140.9899  145.1661  160.0729 C.ar    1  UNL1        0.0353
      8 C         142.0487  144.1273  159.8496 C.ar    1  UNL1        0.1366
      9 N         142.4747  143.2360  160.9783 N.ar    1  UNL1       -0.2236
     10 C         141.8420  143.3835  162.3302 C.ar    1  UNL1        0.1460
     11 N         142.0556  142.6540  163.6234 N.ar    1  UNL1       -0.3061
     12 C         143.0257  141.5333  163.8536 C.3     1  UNL1        0.1031
     13 C         144.5014  141.7997  163.8189 C.3     1  UNL1        0.0255
     14 C         145.4715  140.6790  164.0491 C.3     1  UNL1        0.0191
     15 C         144.9659  139.2919  164.3141 C.3     1  UNL1        0.0687
     16 N         143.4901  139.0254  164.3488 N.3     1  UNL1       -0.2959
     17 C         142.5200  140.1461  164.1186 C.3     1  UNL1        0.0914
     18 H         143.2820  138.6405  165.2702 H       1  UNL1        0.1233
     19 C         142.6814  143.9798  158.4975 C.2     1  UNL1        0.2606
     20 N         142.7604  145.1590  157.5738 N.am    1  UNL1       -0.3241
     21 O         143.2352  142.6532  158.0693 O.2     1  UNL1       -0.2687
     22 H         142.3969  146.0297  157.8548 H       1  UNL1        0.1453
     23 H         143.1756  145.0622  156.6864 H       1  UNL1        0.1453
     24 C         140.8903  142.3831  167.5104 C.1     1  UNL1       -0.0845
     25 C         141.0096  142.8125  166.0781 C.1     1  UNL1       -0.0460
     26 C         140.7709  141.9536  168.9426 C.3     1  UNL1        0.0850
     27 C         140.5517  139.9433  169.5832 C.3     1  UNL1        0.0101
     28 C         141.6962  140.9085  169.4918 C.3     1  UNL1        0.0806
     29 C         142.8407  141.8738  169.4004 C.3     1  UNL1        0.0101
     30 C         142.6214  139.8634  170.0411 C.2     1  UNL1        0.2194
     31 N         143.2025  140.0232  171.4146 N.am    1  UNL1       -0.3288
     32 O         142.9655  138.6584  169.2167 O.2     1  UNL1       -0.2753
     33 H         142.9767  140.8141  171.9557 H       1  UNL1        0.1449
     34 H         143.8098  139.3372  171.7751 H       1  UNL1        0.1449
@<TRIPOS>BOND
     1    27    28    1
     2    28    29    1
     3    28    26    1
     4    26    24    1
     5    24    25    3
     6    25     1    1
     7     1     2   ar
     8     2     3    1
     9     2     4   ar
    10     4     5   ar
    11     5     6    1
    12     5     7   ar
    13     7     8   ar
    14     8    19    1
    15    19    20   am
    16    19    21    2
    17     8     9   ar
    18     9    10   ar
    19    10    11   ar
    20    12    11    1
    21    12    13    1
    22    13    14    1
    23    14    15    1
    24    15    16    1
    25    16    17    1
    26    28    30    1
    27    30    31   am
    28    30    32    2
    29    11     1   ar
    30    17    12    1
    31    10     4   ar
    32    20    22    1
    33    20    23    1
    34    16    18    1
    35    31    33    1
    36    31    34    1
@<TRIPOS>MOLECULE
*****
 34 36 0 0 0
SMALL
GASTEIGER

@<TRIPOS>ATOM
      1 C         140.9390  142.4792  164.5913 C.ar    1  UNL1        0.1143
      2 C         141.1699  143.6174  163.6419 C.ar    1  UNL1        0.0850
      3 CL        141.9585  144.8603  163.9307 Cl      1  UNL1       -0.0799
      4 C         140.4738  143.2945  162.3531 C.ar    1  UNL1        0.0574
      5 C         140.3565  144.0458  161.0601 C.ar    1  UNL1        0.0631
      6 CL        141.0176  145.3835  160.9073 Cl      1  UNL1       -0.0821
      7 C         139.5780  143.4594  159.9199 C.ar    1  UNL1        0.0353
      8 C         138.9169  142.1216  160.0727 C.ar    1  UNL1        0.1366
      9 N         139.0341  141.3704  161.3657 N.ar    1  UNL1       -0.2236
     10 C         139.8126  141.9568  162.5059 C.ar    1  UNL1        0.1460
     11 N         140.1002  141.4530  163.8891 N.ar    1  UNL1       -0.3061
     12 C         139.6312  140.1513  164.4685 C.3     1  UNL1        0.1031
     13 C         138.5464  140.1389  165.5044 C.3     1  UNL1        0.0255
     14 C         138.0774  138.8372  166.0838 C.3     1  UNL1        0.0191
     15 C         138.6932  137.5479  165.6273 C.3     1  UNL1        0.0687
     16 N         139.7780  137.5602  164.5914 N.3     1  UNL1       -0.2959
     17 C         140.2470  138.8619  164.0120 C.3     1  UNL1        0.0914
     18 H         139.4465  136.9930  163.8111 H       1  UNL1        0.1233
     19 C         138.1384  141.5352  158.9325 C.2     1  UNL1        0.2606
     20 N         137.7395  140.0895  158.9617 N.am    1  UNL1       -0.3241
     21 O         137.7588  142.3945  157.7631 O.2     1  UNL1       -0.2687
     22 H         137.9887  139.5255  159.7292 H       1  UNL1        0.1453
     23 H         137.2286  139.7046  158.2133 H       1  UNL1        0.1453
     24 C         141.9734  142.2889  167.4009 C.1     1  UNL1       -0.0845
     25 C         141.4562  142.3841  165.9961 C.1     1  UNL1       -0.0460
     26 C         142.4905  142.1938  168.8057 C.3     1  UNL1        0.0850
     27 C         140.7327  142.9425  169.7274 C.3     1  UNL1        0.0101
     28 C         141.5876  141.7231  169.9071 C.3     1  UNL1        0.0806
     29 C         142.4424  140.5037  170.0868 C.3     1  UNL1        0.0101
     30 C         140.6845  141.2524  171.0085 C.2     1  UNL1        0.2194
     31 N         140.1302  139.8589  170.9799 N.am    1  UNL1       -0.3288
     32 O         140.3359  142.1753  172.1384 O.2     1  UNL1       -0.2753
     33 H         140.3590  139.2532  170.2383 H       1  UNL1        0.1449
     34 H         139.5375  139.5500  171.7028 H       1  UNL1        0.1449
@<TRIPOS>BOND
     1    27    28    1
     2    28    29    1
     3    28    26    1
     4    26    24    1
     5    24    25    3
     6    25     1    1
     7     1     2   ar
     8     2     3    1
     9     2     4   ar
    10     4     5   ar
    11     5     6    1
    12     5     7   ar
    13     7     8   ar
    14     8    19    1
    15    19    20   am
    16    19    21    2
    17     8     9   ar
    18     9    10   ar
    19    10    11   ar
    20    12    11    1
    21    12    13    1
    22    13    14    1
    23    14    15    1
    24    15    16    1
    25    16    17    1
    26    28    30    1
    27    30    31   am
    28    30    32    2
    29    11     1   ar
    30    17    12    1
    31    10     4   ar
    32    20    22    1
    33    20    23    1
    34    16    18    1
    35    31    33    1
    36    31    34    1
@<TRIPOS>MOLECULE
*****
 34 36 0 0 0
SMALL
GASTEIGER

@<TRIPOS>ATOM
      1 C         142.9641  140.2873  165.4336 C.ar    1  UNL1        0.1143
      2 C         143.1025  139.3610  166.6052 C.ar    1  UNL1        0.0850
      3 CL        143.7378  138.0023  166.5847 Cl      1  UNL1       -0.0799
      4 C         142.4939  140.0317  167.8009 C.ar    1  UNL1        0.0574
      5 C         142.3417  139.5947  169.2277 C.ar    1  UNL1        0.0631
      6 CL        142.8562  138.2537  169.6604 Cl      1  UNL1       -0.0821
      7 C         141.6751  140.4986  170.2219 C.ar    1  UNL1        0.0353
      8 C         141.1606  141.8396  169.7893 C.ar    1  UNL1        0.1366
      9 N         141.3128  142.2766  168.3625 N.ar    1  UNL1       -0.2236
     10 C         141.9794  141.3727  167.3683 C.ar    1  UNL1        0.1460
     11 N         142.2700  141.5306  165.9052 N.ar    1  UNL1       -0.3061
     12 C         141.9268  142.7227  165.0619 C.3     1  UNL1        0.1031
     13 C         143.0126  143.6389  164.5810 C.3     1  UNL1        0.0255
     14 C         142.6694  144.8310  163.7377 C.3     1  UNL1        0.0191
     15 C         141.2402  145.1067  163.3751 C.3     1  UNL1        0.0687
     16 N         140.1543  144.1905  163.8560 N.3     1  UNL1       -0.2959
     17 C         140.4975  142.9984  164.6993 C.3     1  UNL1        0.0914
     18 H         139.6785  143.8367  163.0260 H       1  UNL1        0.1233
     19 C         140.4940  142.7435  170.7836 C.2     1  UNL1        0.2606
     20 N         140.0034  144.0954  170.3572 N.am    1  UNL1       -0.3241
     21 O         140.3179  142.2956  172.2043 O.2     1  UNL1       -0.2687
     22 H         140.1190  144.3894  169.4247 H       1  UNL1        0.1453
     23 H         139.5659  144.6886  171.0097 H       1  UNL1        0.1453
     24 C         143.9096  139.7482  162.6380 C.1     1  UNL1       -0.0845
     25 C         143.4368  140.0177  164.0358 C.1     1  UNL1       -0.0460
     26 C         144.3823  139.4786  161.2402 C.3     1  UNL1        0.0850
     27 C         143.3482  137.6506  160.9422 C.3     1  UNL1        0.0101
     28 C         143.4229  138.9582  160.2113 C.3     1  UNL1        0.0806
     29 C         143.4976  140.2659  159.4803 C.3     1  UNL1        0.0101
     30 C         142.4635  138.4378  159.1823 C.2     1  UNL1        0.2194
     31 N         142.9632  137.5841  158.0548 N.am    1  UNL1       -0.3288
     32 O         141.0043  138.7712  159.2809 O.2     1  UNL1       -0.2753
     33 H         143.9209  137.3653  157.9901 H       1  UNL1        0.1449
     34 H         142.3335  137.2425  157.3794 H       1  UNL1        0.1449
@<TRIPOS>BOND
     1    27    28    1
     2    28    29    1
     3    28    26    1
     4    26    24    1
     5    24    25    3
     6    25     1    1
     7     1     2   ar
     8     2     3    1
     9     2     4   ar
    10     4     5   ar
    11     5     6    1
    12     5     7   ar
    13     7     8   ar
    14     8    19    1
    15    19    20   am
    16    19    21    2
    17     8     9   ar
    18     9    10   ar
    19    10    11   ar
    20    12    11    1
    21    12    13    1
    22    13    14    1
    23    14    15    1
    24    15    16    1
    25    16    17    1
    26    28    30    1
    27    30    31   am
    28    30    32    2
    29    11     1   ar
    30    17    12    1
    31    10     4   ar
    32    20    22    1
    33    20    23    1
    34    16    18    1
    35    31    33    1
    36    31    34    1
@<TRIPOS>MOLECULE
*****
 34 36 0 0 0
SMALL
GASTEIGER

@<TRIPOS>ATOM
      1 C         140.8559  142.7119  164.2515 C.ar    1  UNL1        0.1143
      2 C         140.2139  144.0064  163.8489 C.ar    1  UNL1        0.0850
      3 CL        139.3322  144.8593  164.7121 Cl      1  UNL1       -0.0799
      4 C         140.6084  144.2984  162.4314 C.ar    1  UNL1        0.0574
      5 C         140.2754  145.4347  161.5107 C.ar    1  UNL1        0.0631
      6 CL        139.3896  146.5488  161.9841 Cl      1  UNL1       -0.0821
      7 C         140.8283  145.4570  160.1165 C.ar    1  UNL1        0.0353
      8 C         141.7142  144.3429  159.6431 C.ar    1  UNL1        0.1366
      9 N         142.0471  143.2065  160.5639 N.ar    1  UNL1       -0.2236
     10 C         141.4942  143.1843  161.9580 C.ar    1  UNL1        0.1460
     11 N         141.6471  142.2038  163.0829 N.ar    1  UNL1       -0.3061
     12 C         142.4504  140.9375  163.0456 C.3     1  UNL1        0.1031
     13 C         141.7550  139.6089  163.0157 C.3     1  UNL1        0.0255
     14 C         142.5583  138.3426  162.9784 C.3     1  UNL1        0.0191
     15 C         144.0569  138.4050  162.9711 C.3     1  UNL1        0.0687
     16 N         144.7524  139.7337  163.0011 N.3     1  UNL1       -0.2959
     17 C         143.9491  141.0000  163.0384 C.3     1  UNL1        0.0914
     18 H         145.3358  139.7796  162.1657 H       1  UNL1        0.1233
     19 C         142.2671  144.3652  158.2488 C.2     1  UNL1        0.2606
     20 N         142.6371  145.6707  157.6096 N.am    1  UNL1       -0.3241
     21 O         142.4499  143.0819  157.4939 O.2     1  UNL1       -0.2687
     22 H         142.5172  146.5129  158.1051 H       1  UNL1        0.1453
     23 H         143.0000  145.6853  156.6945 H       1  UNL1        0.1453
     24 C         140.6019  141.3740  166.9246 C.1     1  UNL1       -0.0845
     25 C         140.7289  142.0430  165.5881 C.1     1  UNL1       -0.0460
     26 C         140.4749  140.7051  168.2612 C.3     1  UNL1        0.0850
     27 C         141.7311  142.2067  169.0780 C.3     1  UNL1        0.0101
     28 C         140.4660  141.5291  169.5145 C.3     1  UNL1        0.0806
     29 C         139.2010  140.8516  169.9511 C.3     1  UNL1        0.0101
     30 C         140.4572  142.3533  170.7679 C.2     1  UNL1        0.2194
     31 N         139.3205  143.2935  171.0393 N.am    1  UNL1       -0.3288
     32 O         141.5853  142.2371  171.7497 O.2     1  UNL1       -0.2753
     33 H         138.5801  143.3697  170.3948 H       1  UNL1        0.1449
     34 H         139.3147  143.8343  171.8619 H       1  UNL1        0.1449
@<TRIPOS>BOND
     1    27    28    1
     2    28    29    1
     3    28    26    1
     4    26    24    1
     5    24    25    3
     6    25     1    1
     7     1     2   ar
     8     2     3    1
     9     2     4   ar
    10     4     5   ar
    11     5     6    1
    12     5     7   ar
    13     7     8   ar
    14     8    19    1
    15    19    20   am
    16    19    21    2
    17     8     9   ar
    18     9    10   ar
    19    10    11   ar
    20    12    11    1
    21    12    13    1
    22    13    14    1
    23    14    15    1
    24    15    16    1
    25    16    17    1
    26    28    30    1
    27    30    31   am
    28    30    32    2
    29    11     1   ar
    30    17    12    1
    31    10     4   ar
    32    20    22    1
    33    20    23    1
    34    16    18    1
    35    31    33    1
    36    31    34    1
@<TRIPOS>MOLECULE
*****
 34 36 0 0 0
SMALL
GASTEIGER

@<TRIPOS>ATOM
      1 C         142.3373  140.9190  164.6213 C.ar    1  UNL1        0.1143
      2 C         143.1253  139.8784  163.8823 C.ar    1  UNL1        0.0850
      3 CL        144.2817  139.0948  164.4290 Cl      1  UNL1       -0.0799
      4 C         142.5540  139.7589  162.5005 C.ar    1  UNL1        0.0574
      5 C         142.9255  138.8947  161.3321 C.ar    1  UNL1        0.0631
      6 CL        144.0666  137.9280  161.4471 Cl      1  UNL1       -0.0821
      7 C         142.1558  138.9973  160.0487 C.ar    1  UNL1        0.0353
      8 C         141.0147  139.9640  159.9338 C.ar    1  UNL1        0.1366
      9 N         140.6432  140.8282  161.1022 N.ar    1  UNL1       -0.2236
     10 C         141.4129  140.7256  162.3855 C.ar    1  UNL1        0.1460
     11 N         141.2790  141.4426  163.6963 N.ar    1  UNL1       -0.3061
     12 C         140.2647  142.4979  164.0243 C.3     1  UNL1        0.1031
     13 C         138.8404  142.1117  164.2924 C.3     1  UNL1        0.0255
     14 C         137.8261  143.1670  164.6204 C.3     1  UNL1        0.0191
     15 C         138.2363  144.6086  164.6804 C.3     1  UNL1        0.0687
     16 N         139.6607  144.9949  164.4124 N.3     1  UNL1       -0.2959
     17 C         140.6749  143.9396  164.0843 C.3     1  UNL1        0.0914
     18 H         139.9968  145.4773  165.2459 H       1  UNL1        0.1233
     19 C         140.2450  140.0666  158.6503 C.2     1  UNL1        0.2606
     20 N         138.9763  139.2864  158.4723 N.am    1  UNL1       -0.3241
     21 O         140.7441  140.9493  157.5450 O.2     1  UNL1       -0.2687
     22 H         138.6488  138.7071  159.1978 H       1  UNL1        0.1453
     23 H         138.4712  139.3537  157.6299 H       1  UNL1        0.1453
     24 C         142.7971  141.7984  167.4524 C.1     1  UNL1       -0.0845
     25 C         142.5672  141.3587  166.0369 C.1     1  UNL1       -0.0460
     26 C         143.0270  142.2381  168.8680 C.3     1  UNL1        0.0850
     27 C         142.9554  140.5560  170.1583 C.3     1  UNL1        0.0101
     28 C         142.1048  141.7749  169.9564 C.3     1  UNL1        0.0806
     29 C         141.2542  142.9937  169.7545 C.3     1  UNL1        0.0101
     30 C         141.1825  141.3115  171.0449 C.2     1  UNL1        0.2194
     31 N         140.7480  139.8769  171.0997 N.am    1  UNL1       -0.3288
     32 O         140.6948  142.2829  172.0787 O.2     1  UNL1       -0.2753
     33 H         141.0681  139.2394  170.4212 H       1  UNL1        0.1449
     34 H         140.1427  139.5728  171.8141 H       1  UNL1        0.1449
@<TRIPOS>BOND
     1    27    28    1
     2    28    29    1
     3    28    26    1
     4    26    24    1
     5    24    25    3
     6    25     1    1
     7     1     2   ar
     8     2     3    1
     9     2     4   ar
    10     4     5   ar
    11     5     6    1
    12     5     7   ar
    13     7     8   ar
    14     8    19    1
    15    19    20   am
    16    19    21    2
    17     8     9   ar
    18     9    10   ar
    19    10    11   ar
    20    12    11    1
    21    12    13    1
    22    13    14    1
    23    14    15    1
    24    15    16    1
    25    16    17    1
    26    28    30    1
    27    30    31   am
    28    30    32    2
    29    11     1   ar
    30    17    12    1
    31    10     4   ar
    32    20    22    1
    33    20    23    1
    34    16    18    1
    35    31    33    1
    36    31    34    1
@<TRIPOS>MOLECULE
*****
 34 36 0 0 0
SMALL
GASTEIGER

@<TRIPOS>ATOM
      1 C         140.4519  139.9108  165.4282 C.ar    1  UNL1        0.1143
      2 C         139.6695  139.8622  166.7070 C.ar    1  UNL1        0.0850
      3 CL        138.3355  139.2039  166.9000 Cl      1  UNL1       -0.0799
      4 C         140.4551  140.5874  167.7590 C.ar    1  UNL1        0.0574
      5 C         140.1798  140.8596  169.2082 C.ar    1  UNL1        0.0631
      6 CL        138.9117  140.3627  169.8368 Cl      1  UNL1       -0.0821
      7 C         141.1724  141.6286  170.0286 C.ar    1  UNL1        0.0353
      8 C         142.4404  142.1255  169.3999 C.ar    1  UNL1        0.1366
      9 N         142.7158  141.8533  167.9508 N.ar    1  UNL1       -0.2236
     10 C         141.7232  141.0843  167.1303 C.ar    1  UNL1        0.1460
     11 N         141.7211  140.6661  165.6898 N.ar    1  UNL1       -0.3061
     12 C         142.7991  140.9529  164.6870 C.3     1  UNL1        0.1031
     13 C         144.0637  140.1464  164.6938 C.3     1  UNL1        0.0255
     14 C         145.1417  140.4332  163.6910 C.3     1  UNL1        0.0191
     15 C         144.9551  141.5266  162.6813 C.3     1  UNL1        0.0687
     16 N         143.6905  142.3333  162.6744 N.3     1  UNL1       -0.2959
     17 C         142.6125  142.0464  163.6772 C.3     1  UNL1        0.0914
     18 H         143.2723  142.2173  161.7513 H       1  UNL1        0.1233
     19 C         143.4331  142.8946  170.2205 C.2     1  UNL1        0.2606
     20 N         142.9638  143.7383  171.3685 N.am    1  UNL1       -0.3241
     21 O         144.8950  142.8198  169.8930 O.2     1  UNL1       -0.2687
     22 H         142.0043  143.7873  171.5834 H       1  UNL1        0.1453
     23 H         143.6153  144.2430  171.9070 H       1  UNL1        0.1453
     24 C         139.6236  138.7085  162.8074 C.1     1  UNL1       -0.0845
     25 C         140.0377  139.3097  164.1178 C.1     1  UNL1       -0.0460
     26 C         139.2095  138.1074  161.4970 C.3     1  UNL1        0.0850
     27 C         137.6325  139.4152  160.9471 C.3     1  UNL1        0.0101
     28 C         138.9286  138.9943  160.3204 C.3     1  UNL1        0.0806
     29 C         140.2247  138.5734  159.6936 C.3     1  UNL1        0.0101
     30 C         138.6476  139.8812  159.1437 C.2     1  UNL1        0.2194
     31 N         138.3097  141.3268  159.3580 N.am    1  UNL1       -0.3288
     32 O         138.7046  139.3225  157.7528 O.2     1  UNL1       -0.2753
     33 H         138.2722  141.6935  160.2709 H       1  UNL1        0.1449
     34 H         138.1252  141.9090  158.5857 H       1  UNL1        0.1449
@<TRIPOS>BOND
     1    27    28    1
     2    28    29    1
     3    28    26    1
     4    26    24    1
     5    24    25    3
     6    25     1    1
     7     1     2   ar
     8     2     3    1
     9     2     4   ar
    10     4     5   ar
    11     5     6    1
    12     5     7   ar
    13     7     8   ar
    14     8    19    1
    15    19    20   am
    16    19    21    2
    17     8     9   ar
    18     9    10   ar
    19    10    11   ar
    20    12    11    1
    21    12    13    1
    22    13    14    1
    23    14    15    1
    24    15    16    1
    25    16    17    1
    26    28    30    1
    27    30    31   am
    28    30    32    2
    29    11     1   ar
    30    17    12    1
    31    10     4   ar
    32    20    22    1
    33    20    23    1
    34    16    18    1
    35    31    33    1
    36    31    34    1
@<TRIPOS>MOLECULE
*****
 34 36 0 0 0
SMALL
GASTEIGER

@<TRIPOS>ATOM
      1 C         141.3466  140.3792  164.7934 C.ar    1  UNL1        0.1143
      2 C         141.9815  139.5769  165.8903 C.ar    1  UNL1        0.0850
      3 CL        142.7708  138.3135  165.7150 Cl      1  UNL1       -0.0799
      4 C         141.6884  140.2598  167.1933 C.ar    1  UNL1        0.0574
      5 C         142.0591  139.9249  168.6076 C.ar    1  UNL1        0.0631
      6 CL        142.8751  138.7004  168.8992 Cl      1  UNL1       -0.0821
      7 C         141.6139  140.8143  169.7303 C.ar    1  UNL1        0.0353
      8 C         140.7979  142.0387  169.4387 C.ar    1  UNL1        0.1366
      9 N         140.4272  142.3737  168.0244 N.ar    1  UNL1       -0.2236
     10 C         140.8725  141.4842  166.9017 C.ar    1  UNL1        0.1460
     11 N         140.6612  141.5580  165.4185 N.ar    1  UNL1       -0.3061
     12 C         139.8985  142.6235  164.6885 C.3     1  UNL1        0.1031
     13 C         138.5420  142.3217  164.1240 C.3     1  UNL1        0.0255
     14 C         137.7793  143.3872  163.3941 C.3     1  UNL1        0.0191
     15 C         138.3731  144.7547  163.2285 C.3     1  UNL1        0.0687
     16 N         139.7296  145.0566  163.7930 N.3     1  UNL1       -0.2959
     17 C         140.4924  143.9911  164.5230 C.3     1  UNL1        0.0914
     18 H         139.6115  145.8327  164.4442 H       1  UNL1        0.1233
     19 C         140.3527  142.9283  170.5615 C.2     1  UNL1        0.2606
     20 N         140.0153  144.3647  170.2917 N.am    1  UNL1       -0.3241
     21 O         140.2448  142.3813  171.9540 O.2     1  UNL1       -0.2687
     22 H         140.0861  144.7237  169.3778 H       1  UNL1        0.1453
     23 H         139.7231  144.9485  171.0286 H       1  UNL1        0.1453
     24 C         141.4327  139.7388  161.8638 C.1     1  UNL1       -0.0845
     25 C         141.3897  140.0590  163.3286 C.1     1  UNL1       -0.0460
     26 C         141.4757  139.4186  160.3990 C.3     1  UNL1        0.0850
     27 C         140.8347  140.4922  158.6854 C.3     1  UNL1        0.0101
     28 C         140.2170  139.4625  159.5844 C.3     1  UNL1        0.0806
     29 C         139.5993  138.4329  160.4834 C.3     1  UNL1        0.0101
     30 C         138.9582  139.5065  158.7697 C.2     1  UNL1        0.2194
     31 N         137.6811  139.9924  159.3883 N.am    1  UNL1       -0.3288
     32 O         138.9767  139.0645  157.3364 O.2     1  UNL1       -0.2753
     33 H         137.6690  140.2825  160.3290 H       1  UNL1        0.1449
     34 H         136.8549  140.0213  158.8536 H       1  UNL1        0.1449
@<TRIPOS>BOND
     1    27    28    1
     2    28    29    1
     3    28    26    1
     4    26    24    1
     5    24    25    3
     6    25     1    1
     7     1     2   ar
     8     2     3    1
     9     2     4   ar
    10     4     5   ar
    11     5     6    1
    12     5     7   ar
    13     7     8   ar
    14     8    19    1
    15    19    20   am
    16    19    21    2
    17     8     9   ar
    18     9    10   ar
    19    10    11   ar
    20    12    11    1
    21    12    13    1
    22    13    14    1
    23    14    15    1
    24    15    16    1
    25    16    17    1
    26    28    30    1
    27    30    31   am
    28    30    32    2
    29    11     1   ar
    30    17    12    1
    31    10     4   ar
    32    20    22    1
    33    20    23    1
    34    16    18    1
    35    31    33    1
    36    31    34    1
@<TRIPOS>MOLECULE
*****
 34 36 0 0 0
SMALL
GASTEIGER

@<TRIPOS>ATOM
      1 C         140.4410  140.5659  164.5609 C.ar    1  UNL1        0.1143
      2 C         139.6047  139.4236  164.0654 C.ar    1  UNL1        0.0850
      3 CL        139.2800  138.1730  164.8274 Cl      1  UNL1       -0.0799
      4 C         139.1500  139.7513  162.6740 C.ar    1  UNL1        0.0574
      5 C         138.3021  138.9988  161.6918 C.ar    1  UNL1        0.0631
      6 CL        137.7467  137.6539  162.0563 Cl      1  UNL1       -0.0821
      7 C         138.0095  139.5912  160.3452 C.ar    1  UNL1        0.0353
      8 C         138.5648  140.9361  159.9808 C.ar    1  UNL1        0.1366
      9 N         139.4128  141.6886  160.9630 N.ar    1  UNL1       -0.2236
     10 C         139.7053  141.0962  162.3096 C.ar    1  UNL1        0.1460
     11 N         140.5032  141.5997  163.4757 N.ar    1  UNL1       -0.3061
     12 C         141.2349  142.9073  163.5446 C.3     1  UNL1        0.1031
     13 C         142.7312  142.9358  163.4440 C.3     1  UNL1        0.0255
     14 C         143.4628  144.2434  163.5129 C.3     1  UNL1        0.0191
     15 C         142.6981  145.5227  163.6824 C.3     1  UNL1        0.0687
     16 N         141.2018  145.4943  163.7829 N.3     1  UNL1       -0.2959
     17 C         140.4701  144.1866  163.7141 C.3     1  UNL1        0.0914
     18 H         140.8445  146.0720  163.0220 H       1  UNL1        0.1233
     19 C         138.2722  141.5285  158.6341 C.2     1  UNL1        0.2606
     20 N         137.5943  140.7016  157.5822 N.am    1  UNL1       -0.3241
     21 O         138.6574  142.9480  158.3394 O.2     1  UNL1       -0.2687
     22 H         137.3415  139.7699  157.7756 H       1  UNL1        0.1453
     23 H         137.4023  141.0904  156.6984 H       1  UNL1        0.1453
     24 C         141.7581  140.7508  167.2500 C.1     1  UNL1       -0.0845
     25 C         141.0995  140.6584  165.9054 C.1     1  UNL1       -0.0460
     26 C         142.4166  140.8432  168.5945 C.3     1  UNL1        0.0850
     27 C         141.8407  139.3397  169.9758 C.3     1  UNL1        0.0101
     28 C         141.5835  140.8113  169.8415 C.3     1  UNL1        0.0806
     29 C         141.3262  142.2829  169.7071 C.3     1  UNL1        0.0101
     30 C         140.7503  140.7794  171.0885 C.2     1  UNL1        0.2194
     31 N         139.9751  139.5447  171.4411 N.am    1  UNL1       -0.3288
     32 O         140.6925  141.9823  171.9827 O.2     1  UNL1       -0.2753
     33 H         140.0131  138.7552  170.8541 H       1  UNL1        0.1449
     34 H         139.4283  139.5238  172.2595 H       1  UNL1        0.1449
@<TRIPOS>BOND
     1    27    28    1
     2    28    29    1
     3    28    26    1
     4    26    24    1
     5    24    25    3
     6    25     1    1
     7     1     2   ar
     8     2     3    1
     9     2     4   ar
    10     4     5   ar
    11     5     6    1
    12     5     7   ar
    13     7     8   ar
    14     8    19    1
    15    19    20   am
    16    19    21    2
    17     8     9   ar
    18     9    10   ar
    19    10    11   ar
    20    12    11    1
    21    12    13    1
    22    13    14    1
    23    14    15    1
    24    15    16    1
    25    16    17    1
    26    28    30    1
    27    30    31   am
    28    30    32    2
    29    11     1   ar
    30    17    12    1
    31    10     4   ar
    32    20    22    1
    33    20    23    1
    34    16    18    1
    35    31    33    1
    36    31    34    1
@<TRIPOS>MOLECULE
*****
 34 36 0 0 0
SMALL
GASTEIGER

@<TRIPOS>ATOM
      1 C         142.4254  141.1764  164.5234 C.ar    1  UNL1        0.1143
      2 C         142.7441  140.2460  165.6560 C.ar    1  UNL1        0.0850
      3 CL        143.5266  138.9702  165.5555 Cl      1  UNL1       -0.0799
      4 C         142.1430  140.8154  166.9068 C.ar    1  UNL1        0.0574
      5 C         142.1350  140.3319  168.3267 C.ar    1  UNL1        0.0631
      6 CL        142.8252  139.0496  168.6862 Cl      1  UNL1       -0.0821
      7 C         141.4367  141.1307  169.3870 C.ar    1  UNL1        0.0353
      8 C         140.7465  142.4129  169.0274 C.ar    1  UNL1        0.1366
      9 N         140.7545  142.8965  167.6075 N.ar    1  UNL1       -0.2236
     10 C         141.4528  142.0977  166.5472 C.ar    1  UNL1        0.1460
     11 N         141.6273  142.3208  165.0742 N.ar    1  UNL1       -0.3061
     12 C         141.0969  143.4841  164.2898 C.3     1  UNL1        0.1031
     13 C         139.6652  143.4969  163.8428 C.3     1  UNL1        0.0255
     14 C         139.1347  144.6603  163.0584 C.3     1  UNL1        0.0191
     15 C         140.0361  145.8107  162.7208 C.3     1  UNL1        0.0687
     16 N         141.4679  145.7979  163.1678 N.3     1  UNL1       -0.2959
     17 C         141.9983  144.6346  163.9522 C.3     1  UNL1        0.0914
     18 H         141.6038  146.6283  163.7442 H       1  UNL1        0.1233
     19 C         140.0482  143.2118  170.0878 C.2     1  UNL1        0.2606
     20 N         140.2689  144.6926  170.1785 N.am    1  UNL1       -0.3241
     21 O         139.1293  142.5296  171.0575 O.2     1  UNL1       -0.2687
     22 H         140.8720  145.1403  169.5421 H       1  UNL1        0.1453
     23 H         139.8106  145.2169  170.8745 H       1  UNL1        0.1453
     24 C         143.2410  140.8123  161.6594 C.1     1  UNL1       -0.0845
     25 C         142.8332  140.9943  163.0914 C.1     1  UNL1       -0.0460
     26 C         143.6488  140.6303  160.2274 C.3     1  UNL1        0.0850
     27 C         144.6810  142.4834  160.2322 C.3     1  UNL1        0.0101
     28 C         143.7075  141.8140  159.3081 C.3     1  UNL1        0.0806
     29 C         142.7340  141.1445  158.3839 C.3     1  UNL1        0.0101
     30 C         143.7663  142.9978  158.3887 C.2     1  UNL1        0.2194
     31 N         144.6859  142.9822  157.2037 N.am    1  UNL1       -0.3288
     32 O         142.9055  144.1972  158.6543 O.2     1  UNL1       -0.2753
     33 H         145.2508  142.1950  157.0294 H       1  UNL1        0.1449
     34 H         144.7244  143.7591  156.6003 H       1  UNL1        0.1449
@<TRIPOS>BOND
     1    27    28    1
     2    28    29    1
     3    28    26    1
     4    26    24    1
     5    24    25    3
     6    25     1    1
     7     1     2   ar
     8     2     3    1
     9     2     4   ar
    10     4     5   ar
    11     5     6    1
    12     5     7   ar
    13     7     8   ar
    14     8    19    1
    15    19    20   am
    16    19    21    2
    17     8     9   ar
    18     9    10   ar
    19    10    11   ar
    20    12    11    1
    21    12    13    1
    22    13    14    1
    23    14    15    1
    24    15    16    1
    25    16    17    1
    26    28    30    1
    27    30    31   am
    28    30    32    2
    29    11     1   ar
    30    17    12    1
    31    10     4   ar
    32    20    22    1
    33    20    23    1
    34    16    18    1
    35    31    33    1
    36    31    34    1
