@<TRIPOS>MOLECULE
*****
 37 41 0 0 0
SMALL
GASTEIGER

@<TRIPOS>ATOM
      1 C         143.8879  142.3534  159.1087 C.ar    1  UNL1        0.0536
      2 C         144.4372  142.0652  160.4744 C.ar    1  UNL1        0.0042
      3 C         143.8410  142.7318  161.6786 C.ar    1  UNL1       -0.0041
      4 C         142.6955  143.6866  161.5171 C.ar    1  UNL1       -0.0208
      5 C         142.1462  143.9748  160.1514 C.ar    1  UNL1       -0.0041
      6 C         142.7423  143.3082  158.9473 C.ar    1  UNL1        0.0042
      7 O         145.7401  142.2308  157.2910 O.2     1  UNL1       -0.2699
      8 C         144.4841  141.6867  157.9045 C.2     1  UNL1        0.2491
      9 N         143.8242  140.4762  157.3137 N.am    1  UNL1       -0.2732
     10 C         142.5681  139.9321  157.9272 C.3     1  UNL1        0.1111
     11 C         141.9083  138.7215  157.3364 C.3     1  UNL1        0.0942
     12 N         142.5045  138.0549  156.1321 N.3     1  UNL1       -0.2647
     13 C         143.7605  138.5990  155.5187 C.3     1  UNL1        0.0942
     14 C         144.4204  139.8095  156.1094 C.3     1  UNL1        0.1111
     15 C         141.8446  136.8444  155.5414 C.3     1  UNL1        0.1187
     16 C         142.2312  135.4740  156.0134 C.ar    1  UNL1        0.0752
     17 C         141.6422  134.2608  155.3569 C.ar    1  UNL1        0.0161
     18 C         142.0287  132.8904  155.8288 C.ar    1  UNL1        0.0028
     19 C         143.0043  132.7334  156.9573 C.ar    1  UNL1        0.0207
     20 C         143.5934  133.9466  157.6139 C.ar    1  UNL1        0.0985
     21 N         143.2068  135.3170  157.1419 N.ar    1  UNL1       -0.2468
     22 C         142.0993  144.3532  162.7214 C.3     1  UNL1        0.0420
     23 C         140.7805  143.8854  163.2617 C.3     1  UNL1        0.0585
     24 C         139.8864  144.6519  164.1906 C.3     1  UNL1        0.0175
     25 C         138.6776  143.8092  164.4710 C.3     1  UNL1        0.0199
     26 C         138.8247  142.5217  163.7153 C.3     1  UNL1        0.0855
     27 N         140.1244  142.5689  162.9680 N.3     1  UNL1       -0.2971
     28 H         139.9510  142.4844  161.9664 H       1  UNL1        0.1233
     29 C         137.8442  141.3866  163.7083 C.3     1  UNL1        0.1470
     30 O         136.4703  141.5857  163.1402 O.3     1  UNL1       -0.3787
     31 H         135.9675  140.7593  163.2128 H       1  UNL1        0.2108
     32 C         138.2376  140.0523  164.2693 C.ar    1  UNL1        0.0055
     33 C         138.7506  138.9772  163.3576 C.ar    1  UNL1       -0.0019
     34 C         139.1440  137.6428  163.9186 C.ar    1  UNL1       -0.0002
     35 C         139.0245  137.3835  165.3911 C.ar    1  UNL1       -0.0000
     36 C         138.5116  138.4586  166.3028 C.ar    1  UNL1       -0.0002
     37 C         138.1181  139.7930  165.7418 C.ar    1  UNL1       -0.0019
@<TRIPOS>BOND
     1     7     8    2
     2     8     1    1
     3     1     2   ar
     4     2     3   ar
     5     3     4   ar
     6     4    22    1
     7    23    22    1
     8    23    24    1
     9    24    25    1
    10    26    25    1
    11    26    29    1
    12    29    30    1
    13    29    32    1
    14    32    33   ar
    15    33    34   ar
    16    34    35   ar
    17    35    36   ar
    18    36    37   ar
    19    26    27    1
    20     4     5   ar
    21     5     6   ar
    22     8     9   am
    23     9    10    1
    24    10    11    1
    25    11    12    1
    26    12    15    1
    27    15    16    1
    28    16    17   ar
    29    17    18   ar
    30    18    19   ar
    31    19    20   ar
    32    20    21   ar
    33    12    13    1
    34    13    14    1
    35     6     1   ar
    36    14     9    1
    37    27    23    1
    38    21    16   ar
    39    37    32   ar
    40    30    31    1
    41    27    28    1
@<TRIPOS>MOLECULE
*****
 37 41 0 0 0
SMALL
GASTEIGER

@<TRIPOS>ATOM
      1 C         140.5752  145.0614  159.6116 C.ar    1  UNL1        0.0536
      2 C         139.8529  145.8748  160.6444 C.ar    1  UNL1        0.0042
      3 C         140.2960  145.8323  162.0768 C.ar    1  UNL1       -0.0041
      4 C         141.4613  144.9765  162.4764 C.ar    1  UNL1       -0.0208
      5 C         142.1836  144.1632  161.4436 C.ar    1  UNL1       -0.0041
      6 C         141.7405  144.2056  160.0111 C.ar    1  UNL1        0.0042
      7 O         140.4920  146.2776  157.3172 O.2     1  UNL1       -0.2699
      8 C         140.1321  145.1038  158.1791 C.2     1  UNL1        0.2491
      9 N         139.3293  143.9725  157.6085 N.am    1  UNL1       -0.2732
     10 C         138.9695  142.7988  158.4703 C.3     1  UNL1        0.1111
     11 C         138.1666  141.6674  157.8997 C.3     1  UNL1        0.0942
     12 N         137.7236  141.7099  156.4673 N.3     1  UNL1       -0.2647
     13 C         138.0835  142.8837  155.6054 C.3     1  UNL1        0.0942
     14 C         138.8863  144.0150  156.1760 C.3     1  UNL1        0.1111
     15 C         136.9208  140.5786  155.8967 C.3     1  UNL1        0.1187
     16 C         135.4235  140.6032  155.9830 C.ar    1  UNL1        0.0752
     17 C         134.6266  141.3748  154.9733 C.ar    1  UNL1        0.0161
     18 C         133.1293  141.3993  155.0596 C.ar    1  UNL1        0.0028
     19 C         132.4289  140.6524  156.1557 C.ar    1  UNL1        0.0207
     20 C         133.2258  139.8808  157.1655 C.ar    1  UNL1        0.0985
     21 N         134.7231  139.8562  157.0792 N.ar    1  UNL1       -0.2468
     22 C         141.9043  144.9341  163.9089 C.3     1  UNL1        0.0420
     23 C         142.3817  143.6447  164.5084 C.3     1  UNL1        0.0585
     24 C         143.8104  143.2691  164.7688 C.3     1  UNL1        0.0175
     25 C         143.8260  141.8967  165.3741 C.3     1  UNL1        0.0199
     26 C         142.4068  141.4241  165.4879 C.3     1  UNL1        0.0855
     27 N         141.5143  142.5044  164.9528 N.3     1  UNL1       -0.2971
     28 H         140.8759  142.8194  165.6833 H       1  UNL1        0.1233
     29 C         141.9590  140.1032  166.0397 C.3     1  UNL1        0.1470
     30 O         141.9517  138.8871  165.1616 O.3     1  UNL1       -0.3787
     31 H         141.6374  138.1231  165.6700 H       1  UNL1        0.2108
     32 C         141.5184  139.9983  167.4697 C.ar    1  UNL1        0.0055
     33 C         142.4835  139.5334  168.5196 C.ar    1  UNL1       -0.0019
     34 C         142.0430  139.4285  169.9496 C.ar    1  UNL1       -0.0002
     35 C         140.6373  139.7885  170.3297 C.ar    1  UNL1       -0.0000
     36 C         139.6722  140.2535  169.2797 C.ar    1  UNL1       -0.0002
     37 C         140.1127  140.3584  167.8497 C.ar    1  UNL1       -0.0019
@<TRIPOS>BOND
     1     7     8    2
     2     8     1    1
     3     1     2   ar
     4     2     3   ar
     5     3     4   ar
     6     4    22    1
     7    23    22    1
     8    23    24    1
     9    24    25    1
    10    26    25    1
    11    26    29    1
    12    29    30    1
    13    29    32    1
    14    32    33   ar
    15    33    34   ar
    16    34    35   ar
    17    35    36   ar
    18    36    37   ar
    19    26    27    1
    20     4     5   ar
    21     5     6   ar
    22     8     9   am
    23     9    10    1
    24    10    11    1
    25    11    12    1
    26    12    15    1
    27    15    16    1
    28    16    17   ar
    29    17    18   ar
    30    18    19   ar
    31    19    20   ar
    32    20    21   ar
    33    12    13    1
    34    13    14    1
    35     6     1   ar
    36    14     9    1
    37    27    23    1
    38    21    16   ar
    39    37    32   ar
    40    30    31    1
    41    27    28    1
@<TRIPOS>MOLECULE
*****
 37 41 0 0 0
SMALL
GASTEIGER

@<TRIPOS>ATOM
      1 C         140.6153  142.9267  159.9292 C.ar    1  UNL1        0.0536
      2 C         140.6310  141.4523  159.6539 C.ar    1  UNL1        0.0042
      3 C         139.6553  140.5493  160.3485 C.ar    1  UNL1       -0.0041
      4 C         138.6640  141.1206  161.3184 C.ar    1  UNL1       -0.0208
      5 C         138.6483  142.5950  161.5937 C.ar    1  UNL1       -0.0041
      6 C         139.6239  143.4981  160.8991 C.ar    1  UNL1        0.0042
      7 O         142.9893  143.9686  159.7595 O.2     1  UNL1       -0.2699
      8 C         141.5910  143.8299  159.2345 C.2     1  UNL1        0.2491
      9 N         141.1684  144.5942  158.0151 N.am    1  UNL1       -0.2732
     10 C         139.7701  144.4554  157.4901 C.3     1  UNL1        0.1111
     11 C         139.3475  145.2198  156.2706 C.3     1  UNL1        0.0942
     12 N         140.3232  146.1229  155.5760 N.3     1  UNL1       -0.2647
     13 C         141.7215  146.2616  156.1010 C.3     1  UNL1        0.0942
     14 C         142.1441  145.4973  157.3204 C.3     1  UNL1        0.1111
     15 C         139.9006  146.8872  154.3565 C.3     1  UNL1        0.1187
     16 C         139.5450  148.3401  154.4679 C.ar    1  UNL1        0.0752
     17 C         138.8031  148.8406  155.6717 C.ar    1  UNL1        0.0161
     18 C         138.4475  150.2936  155.7831 C.ar    1  UNL1        0.0028
     19 C         138.8337  151.2461  154.6906 C.ar    1  UNL1        0.0207
     20 C         139.5757  150.7457  153.4868 C.ar    1  UNL1        0.0985
     21 N         139.9313  149.2927  153.3754 N.ar    1  UNL1       -0.2468
     22 C         137.6883  140.2175  162.0130 C.3     1  UNL1        0.0420
     23 C         138.0861  139.5138  163.2765 C.3     1  UNL1        0.0585
     24 C         138.8672  138.2364  163.3658 C.3     1  UNL1        0.0175
     25 C         139.0365  137.8971  164.8171 C.3     1  UNL1        0.0199
     26 C         138.3600  138.9649  165.6248 C.3     1  UNL1        0.0855
     27 N         137.7727  139.9640  164.6726 N.3     1  UNL1       -0.2971
     28 H         138.1816  140.8834  164.8399 H       1  UNL1        0.1233
     29 C         138.2843  139.0232  167.1217 C.3     1  UNL1        0.1470
     30 O         137.2741  138.1910  167.8546 O.3     1  UNL1       -0.3787
     31 H         137.3586  138.3456  168.8084 H       1  UNL1        0.2108
     32 C         139.2187  139.9136  167.8858 C.ar    1  UNL1        0.0055
     33 C         138.9608  140.2043  169.3346 C.ar    1  UNL1       -0.0019
     34 C         139.8952  141.0947  170.0989 C.ar    1  UNL1       -0.0002
     35 C         141.0875  141.6945  169.4143 C.ar    1  UNL1       -0.0000
     36 C         141.3454  141.4038  167.9655 C.ar    1  UNL1       -0.0002
     37 C         140.4110  140.5133  167.2013 C.ar    1  UNL1       -0.0019
@<TRIPOS>BOND
     1     7     8    2
     2     8     1    1
     3     1     2   ar
     4     2     3   ar
     5     3     4   ar
     6     4    22    1
     7    23    22    1
     8    23    24    1
     9    24    25    1
    10    26    25    1
    11    26    29    1
    12    29    30    1
    13    29    32    1
    14    32    33   ar
    15    33    34   ar
    16    34    35   ar
    17    35    36   ar
    18    36    37   ar
    19    26    27    1
    20     4     5   ar
    21     5     6   ar
    22     8     9   am
    23     9    10    1
    24    10    11    1
    25    11    12    1
    26    12    15    1
    27    15    16    1
    28    16    17   ar
    29    17    18   ar
    30    18    19   ar
    31    19    20   ar
    32    20    21   ar
    33    12    13    1
    34    13    14    1
    35     6     1   ar
    36    14     9    1
    37    27    23    1
    38    21    16   ar
    39    37    32   ar
    40    30    31    1
    41    27    28    1
@<TRIPOS>MOLECULE
*****
 37 41 0 0 0
SMALL
GASTEIGER

@<TRIPOS>ATOM
      1 C         139.1404  139.2702  159.3844 C.ar    1  UNL1        0.0536
      2 C         140.2422  138.4732  160.0174 C.ar    1  UNL1        0.0042
      3 C         140.1261  138.0374  161.4479 C.ar    1  UNL1       -0.0041
      4 C         138.9081  138.3985  162.2455 C.ar    1  UNL1       -0.0208
      5 C         137.8063  139.1955  161.6125 C.ar    1  UNL1       -0.0041
      6 C         137.9224  139.6314  160.1820 C.ar    1  UNL1        0.0042
      7 O         138.7764  138.8059  156.8542 O.2     1  UNL1       -0.2699
      8 C         139.2565  139.7061  157.9538 C.2     1  UNL1        0.2491
      9 N         139.8527  141.0421  157.6228 N.am    1  UNL1       -0.2732
     10 C         140.3328  141.9423  158.7224 C.3     1  UNL1        0.1111
     11 C         140.9291  143.2784  158.3914 C.3     1  UNL1        0.0942
     12 N         141.0451  143.7142  156.9609 N.3     1  UNL1       -0.2647
     13 C         140.5650  142.8140  155.8613 C.3     1  UNL1        0.0942
     14 C         139.9688  141.4780  156.1922 C.3     1  UNL1        0.1111
     15 C         141.6413  145.0502  156.6299 C.3     1  UNL1        0.1187
     16 C         140.7625  146.1637  156.1422 C.ar    1  UNL1        0.0752
     17 C         140.8789  146.6458  154.7266 C.ar    1  UNL1        0.0161
     18 C         140.0000  147.7592  154.2389 C.ar    1  UNL1        0.0028
     19 C         139.0048  148.3905  155.1667 C.ar    1  UNL1        0.0207
     20 C         138.8884  147.9084  156.5824 C.ar    1  UNL1        0.0985
     21 N         139.7672  146.7949  157.0701 N.ar    1  UNL1       -0.2468
     22 C         138.7920  137.9626  163.6761 C.3     1  UNL1        0.0420
     23 C         139.0207  138.9500  164.7819 C.3     1  UNL1        0.0585
     24 C         138.6586  138.7573  166.2247 C.3     1  UNL1        0.0175
     25 C         139.0658  139.9916  166.9736 C.3     1  UNL1        0.0199
     26 C         139.6795  140.9471  165.9935 C.3     1  UNL1        0.0855
     27 N         139.6516  140.3033  164.6390 N.3     1  UNL1       -0.2971
     28 H         140.6023  140.2061  164.2823 H       1  UNL1        0.1233
     29 C         140.2252  142.3075  166.3121 C.3     1  UNL1        0.1470
     30 O         139.9892  143.4500  165.3692 O.3     1  UNL1       -0.3787
     31 H         140.4056  144.2518  165.7222 H       1  UNL1        0.2108
     32 C         141.0070  142.5255  167.5735 C.ar    1  UNL1        0.0055
     33 C         142.4401  142.0894  167.6525 C.ar    1  UNL1       -0.0019
     34 C         143.2219  142.3073  168.9139 C.ar    1  UNL1       -0.0002
     35 C         142.5707  142.9613  170.0964 C.ar    1  UNL1       -0.0000
     36 C         141.1377  143.3974  170.0174 C.ar    1  UNL1       -0.0002
     37 C         140.3558  143.1795  168.7560 C.ar    1  UNL1       -0.0019
@<TRIPOS>BOND
     1     7     8    2
     2     8     1    1
     3     1     2   ar
     4     2     3   ar
     5     3     4   ar
     6     4    22    1
     7    23    22    1
     8    23    24    1
     9    24    25    1
    10    26    25    1
    11    26    29    1
    12    29    30    1
    13    29    32    1
    14    32    33   ar
    15    33    34   ar
    16    34    35   ar
    17    35    36   ar
    18    36    37   ar
    19    26    27    1
    20     4     5   ar
    21     5     6   ar
    22     8     9   am
    23     9    10    1
    24    10    11    1
    25    11    12    1
    26    12    15    1
    27    15    16    1
    28    16    17   ar
    29    17    18   ar
    30    18    19   ar
    31    19    20   ar
    32    20    21   ar
    33    12    13    1
    34    13    14    1
    35     6     1   ar
    36    14     9    1
    37    27    23    1
    38    21    16   ar
    39    37    32   ar
    40    30    31    1
    41    27    28    1
@<TRIPOS>MOLECULE
*****
 37 41 0 0 0
SMALL
GASTEIGER

@<TRIPOS>ATOM
      1 C         144.1371  141.1453  161.1136 C.ar    1  UNL1        0.0536
      2 C         143.8916  139.7032  160.7818 C.ar    1  UNL1        0.0042
      3 C         143.4743  139.3133  159.3948 C.ar    1  UNL1       -0.0041
      4 C         143.3025  140.3654  158.3396 C.ar    1  UNL1       -0.0208
      5 C         143.5480  141.8075  158.6714 C.ar    1  UNL1       -0.0041
      6 C         143.9652  142.1974  160.0584 C.ar    1  UNL1        0.0042
      7 O         146.0095  141.5763  162.8624 O.2     1  UNL1       -0.2699
      8 C         144.5544  141.5353  162.5006 C.2     1  UNL1        0.2491
      9 N         143.5165  141.8843  163.5258 N.am    1  UNL1       -0.2732
     10 C         142.0614  141.8433  163.1641 C.3     1  UNL1        0.1111
     11 C         141.0235  142.1923  164.1893 C.3     1  UNL1        0.0942
     12 N         141.4408  142.5823  165.5763 N.3     1  UNL1       -0.2647
     13 C         142.8960  142.6233  165.9381 C.3     1  UNL1        0.0942
     14 C         143.9338  142.2743  164.9129 C.3     1  UNL1        0.1111
     15 C         140.4030  142.9313  166.6015 C.3     1  UNL1        0.1187
     16 C         140.4140  142.2548  167.9403 C.ar    1  UNL1        0.0752
     17 C         140.4586  143.0756  169.1950 C.ar    1  UNL1        0.0161
     18 C         140.4696  142.3991  170.5337 C.ar    1  UNL1        0.0028
     19 C         140.4360  140.9019  170.6178 C.ar    1  UNL1        0.0207
     20 C         140.3914  140.0810  169.3630 C.ar    1  UNL1        0.0985
     21 N         140.3804  140.7575  168.0243 N.ar    1  UNL1       -0.2468
     22 C         142.8852  139.9754  156.9526 C.3     1  UNL1        0.0420
     23 C         143.1571  138.5887  156.4496 C.3     1  UNL1        0.0585
     24 C         144.3408  138.1635  155.6323 C.3     1  UNL1        0.0175
     25 C         144.2083  136.6957  155.3532 C.3     1  UNL1        0.0199
     26 C         142.9426  136.2136  155.9980 C.3     1  UNL1        0.0855
     27 N         142.2929  137.3836  156.6756 N.3     1  UNL1       -0.2971
     28 H         142.2081  137.2011  157.6755 H       1  UNL1        0.1233
     29 C         142.4186  134.8084  155.9701 C.3     1  UNL1        0.1470
     30 O         140.9824  134.5503  155.6228 O.3     1  UNL1       -0.3787
     31 H         140.8095  133.5962  155.6505 H       1  UNL1        0.2108
     32 C         143.3308  133.6613  156.2894 C.ar    1  UNL1        0.0055
     33 C         143.5306  132.5612  155.2895 C.ar    1  UNL1       -0.0019
     34 C         144.4428  131.4140  155.6088 C.ar    1  UNL1       -0.0002
     35 C         145.1552  131.3671  156.9280 C.ar    1  UNL1       -0.0000
     36 C         144.9554  132.4672  157.9279 C.ar    1  UNL1       -0.0002
     37 C         144.0432  133.6144  157.6086 C.ar    1  UNL1       -0.0019
@<TRIPOS>BOND
     1     7     8    2
     2     8     1    1
     3     1     2   ar
     4     2     3   ar
     5     3     4   ar
     6     4    22    1
     7    23    22    1
     8    23    24    1
     9    24    25    1
    10    26    25    1
    11    26    29    1
    12    29    30    1
    13    29    32    1
    14    32    33   ar
    15    33    34   ar
    16    34    35   ar
    17    35    36   ar
    18    36    37   ar
    19    26    27    1
    20     4     5   ar
    21     5     6   ar
    22     8     9   am
    23     9    10    1
    24    10    11    1
    25    11    12    1
    26    12    15    1
    27    15    16    1
    28    16    17   ar
    29    17    18   ar
    30    18    19   ar
    31    19    20   ar
    32    20    21   ar
    33    12    13    1
    34    13    14    1
    35     6     1   ar
    36    14     9    1
    37    27    23    1
    38    21    16   ar
    39    37    32   ar
    40    30    31    1
    41    27    28    1
@<TRIPOS>MOLECULE
*****
 37 41 0 0 0
SMALL
GASTEIGER

@<TRIPOS>ATOM
      1 C         138.0943  140.5673  159.6105 C.ar    1  UNL1        0.0536
      2 C         137.7602  139.5259  160.6370 C.ar    1  UNL1        0.0042
      3 C         137.6828  139.9003  162.0875 C.ar    1  UNL1       -0.0041
      4 C         137.9394  141.3161  162.5114 C.ar    1  UNL1       -0.0208
      5 C         138.2735  142.3575  161.4848 C.ar    1  UNL1       -0.0041
      6 C         138.3510  141.9831  160.0344 C.ar    1  UNL1        0.0042
      7 O         137.1108  140.6588  157.2075 O.2     1  UNL1       -0.2699
      8 C         138.1718  140.1929  158.1600 C.2     1  UNL1        0.2491
      9 N         139.3103  139.3528  157.6620 N.am    1  UNL1       -0.2732
     10 C         140.3713  138.8870  158.6145 C.3     1  UNL1        0.1111
     11 C         141.5098  138.0468  158.1164 C.3     1  UNL1        0.0942
     12 N         141.5872  137.6725  156.6660 N.3     1  UNL1       -0.2647
     13 C         140.5262  138.1383  155.7135 C.3     1  UNL1        0.0942
     14 C         139.3877  138.9784  156.2115 C.3     1  UNL1        0.1111
     15 C         142.7257  136.8323  156.1680 C.3     1  UNL1        0.1187
     16 C         142.6160  135.3364  156.1818 C.ar    1  UNL1        0.0752
     17 C         143.5609  134.5227  157.0155 C.ar    1  UNL1        0.0161
     18 C         143.4512  133.0268  157.0293 C.ar    1  UNL1        0.0028
     19 C         142.3965  132.3446  156.2094 C.ar    1  UNL1        0.0207
     20 C         141.4515  133.1582  155.3757 C.ar    1  UNL1        0.0985
     21 N         141.5612  134.6541  155.3619 N.ar    1  UNL1       -0.2468
     22 C         137.8619  141.6904  163.9619 C.3     1  UNL1        0.0420
     23 C         138.8118  141.0759  164.9468 C.3     1  UNL1        0.0585
     24 C         138.4619  140.0592  165.9926 C.3     1  UNL1        0.0175
     25 C         139.7122  139.7252  166.7510 C.3     1  UNL1        0.0199
     26 C         140.8349  140.5355  166.1739 C.3     1  UNL1        0.0855
     27 N         140.2784  141.3703  165.0588 N.3     1  UNL1       -0.2971
     28 H         140.7465  141.1352  164.1836 H       1  UNL1        0.1233
     29 C         142.2632  140.5147  166.6315 C.3     1  UNL1        0.1470
     30 O         142.5954  140.1006  168.0345 O.3     1  UNL1       -0.3787
     31 H         143.5556  140.1425  168.1652 H       1  UNL1        0.2108
     32 C         143.3594  140.9079  165.6862 C.ar    1  UNL1        0.0055
     33 C         144.0548  139.8611  164.8672 C.ar    1  UNL1       -0.0019
     34 C         145.1511  140.2543  163.9219 C.ar    1  UNL1       -0.0002
     35 C         145.5520  141.6942  163.7956 C.ar    1  UNL1       -0.0000
     36 C         144.8566  142.7409  164.6146 C.ar    1  UNL1       -0.0002
     37 C         143.7603  142.3478  165.5600 C.ar    1  UNL1       -0.0019
@<TRIPOS>BOND
     1     7     8    2
     2     8     1    1
     3     1     2   ar
     4     2     3   ar
     5     3     4   ar
     6     4    22    1
     7    23    22    1
     8    23    24    1
     9    24    25    1
    10    26    25    1
    11    26    29    1
    12    29    30    1
    13    29    32    1
    14    32    33   ar
    15    33    34   ar
    16    34    35   ar
    17    35    36   ar
    18    36    37   ar
    19    26    27    1
    20     4     5   ar
    21     5     6   ar
    22     8     9   am
    23     9    10    1
    24    10    11    1
    25    11    12    1
    26    12    15    1
    27    15    16    1
    28    16    17   ar
    29    17    18   ar
    30    18    19   ar
    31    19    20   ar
    32    20    21   ar
    33    12    13    1
    34    13    14    1
    35     6     1   ar
    36    14     9    1
    37    27    23    1
    38    21    16   ar
    39    37    32   ar
    40    30    31    1
    41    27    28    1
@<TRIPOS>MOLECULE
*****
 37 41 0 0 0
SMALL
GASTEIGER

@<TRIPOS>ATOM
      1 C         138.1210  140.6808  159.3426 C.ar    1  UNL1        0.0536
      2 C         138.5015  142.0911  159.6833 C.ar    1  UNL1        0.0042
      3 C         138.3668  142.5845  161.0933 C.ar    1  UNL1       -0.0041
      4 C         137.8514  141.6675  162.1628 C.ar    1  UNL1       -0.0208
      5 C         137.4709  140.2572  161.8221 C.ar    1  UNL1       -0.0041
      6 C         137.6056  139.7638  160.4121 C.ar    1  UNL1        0.0042
      7 O         137.2305  140.5648  156.9046 O.2     1  UNL1       -0.2699
      8 C         138.2557  140.1873  157.9325 C.2     1  UNL1        0.2491
      9 N         139.4156  139.3163  157.5503 N.am    1  UNL1       -0.2732
     10 C         140.4407  138.9388  158.5782 C.3     1  UNL1        0.1111
     11 C         141.6006  138.0678  158.1959 C.3     1  UNL1        0.0942
     12 N         141.7353  137.5744  156.7858 N.3     1  UNL1       -0.2647
     13 C         140.7102  137.9519  155.7579 C.3     1  UNL1        0.0942
     14 C         139.5503  138.8229  156.1401 C.3     1  UNL1        0.1111
     15 C         142.8952  136.7035  156.4036 C.3     1  UNL1        0.1187
     16 C         142.7240  135.2150  156.3324 C.ar    1  UNL1        0.0752
     17 C         143.5656  134.3211  157.1942 C.ar    1  UNL1        0.0161
     18 C         143.3944  132.8326  157.1230 C.ar    1  UNL1        0.0028
     19 C         142.3815  132.2380  156.1900 C.ar    1  UNL1        0.0207
     20 C         141.5398  133.1318  155.3282 C.ar    1  UNL1        0.0985
     21 N         141.7110  134.6203  155.3994 N.ar    1  UNL1       -0.2468
     22 C         137.7167  142.1610  163.5729 C.3     1  UNL1        0.0420
     23 C         138.9349  142.3088  164.4354 C.3     1  UNL1        0.0585
     24 C         139.2803  143.5018  165.2765 C.3     1  UNL1        0.0175
     25 C         140.5805  143.2199  165.9692 C.3     1  UNL1        0.0199
     26 C         141.0388  141.8525  165.5562 C.3     1  UNL1        0.0855
     27 N         140.0218  141.2895  164.6083 N.3     1  UNL1       -0.2971
     28 H         139.6312  140.4285  164.9911 H       1  UNL1        0.1233
     29 C         142.2938  141.1685  166.0113 C.3     1  UNL1        0.1470
     30 O         143.3067  140.7118  165.0036 O.3     1  UNL1       -0.3787
     31 H         144.0520  140.2925  165.4614 H       1  UNL1        0.2108
     32 C         142.5359  140.9411  167.4740 C.ar    1  UNL1        0.0055
     33 C         143.0622  142.0554  168.3292 C.ar    1  UNL1       -0.0019
     34 C         143.3043  141.8280  169.7919 C.ar    1  UNL1       -0.0002
     35 C         143.0202  140.4864  170.3995 C.ar    1  UNL1       -0.0000
     36 C         142.4939  139.3720  169.5443 C.ar    1  UNL1       -0.0002
     37 C         142.2518  139.5994  168.0815 C.ar    1  UNL1       -0.0019
@<TRIPOS>BOND
     1     7     8    2
     2     8     1    1
     3     1     2   ar
     4     2     3   ar
     5     3     4   ar
     6     4    22    1
     7    23    22    1
     8    23    24    1
     9    24    25    1
    10    26    25    1
    11    26    29    1
    12    29    30    1
    13    29    32    1
    14    32    33   ar
    15    33    34   ar
    16    34    35   ar
    17    35    36   ar
    18    36    37   ar
    19    26    27    1
    20     4     5   ar
    21     5     6   ar
    22     8     9   am
    23     9    10    1
    24    10    11    1
    25    11    12    1
    26    12    15    1
    27    15    16    1
    28    16    17   ar
    29    17    18   ar
    30    18    19   ar
    31    19    20   ar
    32    20    21   ar
    33    12    13    1
    34    13    14    1
    35     6     1   ar
    36    14     9    1
    37    27    23    1
    38    21    16   ar
    39    37    32   ar
    40    30    31    1
    41    27    28    1
@<TRIPOS>MOLECULE
*****
 37 41 0 0 0
SMALL
GASTEIGER

@<TRIPOS>ATOM
      1 C         138.3003  139.4120  161.7400 C.ar    1  UNL1        0.0536
      2 C         138.6799  138.1393  162.4373 C.ar    1  UNL1        0.0042
      3 C         138.7809  138.1053  163.9335 C.ar    1  UNL1       -0.0041
      4 C         138.5022  139.3439  164.7324 C.ar    1  UNL1       -0.0208
      5 C         138.1226  140.6165  164.0351 C.ar    1  UNL1       -0.0041
      6 C         138.0216  140.6506  162.5389 C.ar    1  UNL1        0.0042
      7 O         136.9163  139.8629  159.5880 O.2     1  UNL1       -0.2699
      8 C         138.1993  139.4461  160.2438 C.2     1  UNL1        0.2491
      9 N         139.3813  139.0633  159.4034 N.am    1  UNL1       -0.2732
     10 C         140.6643  138.6464  160.0592 C.3     1  UNL1        0.1111
     11 C         141.8464  138.2637  159.2187 C.3     1  UNL1        0.0942
     12 N         141.7454  138.2978  157.7225 N.3     1  UNL1       -0.2647
     13 C         140.4623  138.7146  157.0667 C.3     1  UNL1        0.0942
     14 C         139.2803  139.0974  157.9071 C.3     1  UNL1        0.1111
     15 C         142.9274  137.9150  156.8821 C.3     1  UNL1        0.1187
     16 C         142.9125  136.6305  156.1076 C.ar    1  UNL1        0.0752
     17 C         142.2822  136.5822  154.7473 C.ar    1  UNL1        0.0161
     18 C         142.2673  135.2978  153.9728 C.ar    1  UNL1        0.0028
     19 C         142.8827  134.0616  154.5585 C.ar    1  UNL1        0.0207
     20 C         143.5131  134.1099  155.9188 C.ar    1  UNL1        0.0985
     21 N         143.5279  135.3943  156.6933 N.ar    1  UNL1       -0.2468
     22 C         138.6032  139.3098  166.2287 C.3     1  UNL1        0.0420
     23 C         139.6940  140.0690  166.9242 C.3     1  UNL1        0.0585
     24 C         139.7805  140.3367  168.3976 C.3     1  UNL1        0.0175
     25 C         141.0297  141.1269  168.6525 C.3     1  UNL1        0.0199
     26 C         141.7153  141.3475  167.3367 C.3     1  UNL1        0.0855
     27 N         140.8898  140.6937  166.2686 N.3     1  UNL1       -0.2971
     28 H         141.4400  139.9762  165.7965 H       1  UNL1        0.1233
     29 C         143.0008  142.0914  167.1261 C.3     1  UNL1        0.1470
     30 O         143.7012  142.7236  168.2921 O.3     1  UNL1       -0.3787
     31 H         144.5106  143.1610  167.9847 H       1  UNL1        0.2108
     32 C         143.5857  142.2030  165.7494 C.ar    1  UNL1        0.0055
     33 C         143.5927  143.5260  165.0426 C.ar    1  UNL1       -0.0019
     34 C         144.1777  143.6378  163.6659 C.ar    1  UNL1       -0.0002
     35 C         144.7557  142.4265  162.9960 C.ar    1  UNL1       -0.0000
     36 C         144.7487  141.1035  163.7029 C.ar    1  UNL1       -0.0002
     37 C         144.1637  140.9918  165.0796 C.ar    1  UNL1       -0.0019
@<TRIPOS>BOND
     1     7     8    2
     2     8     1    1
     3     1     2   ar
     4     2     3   ar
     5     3     4   ar
     6     4    22    1
     7    23    22    1
     8    23    24    1
     9    24    25    1
    10    26    25    1
    11    26    29    1
    12    29    30    1
    13    29    32    1
    14    32    33   ar
    15    33    34   ar
    16    34    35   ar
    17    35    36   ar
    18    36    37   ar
    19    26    27    1
    20     4     5   ar
    21     5     6   ar
    22     8     9   am
    23     9    10    1
    24    10    11    1
    25    11    12    1
    26    12    15    1
    27    15    16    1
    28    16    17   ar
    29    17    18   ar
    30    18    19   ar
    31    19    20   ar
    32    20    21   ar
    33    12    13    1
    34    13    14    1
    35     6     1   ar
    36    14     9    1
    37    27    23    1
    38    21    16   ar
    39    37    32   ar
    40    30    31    1
    41    27    28    1
@<TRIPOS>MOLECULE
*****
 37 41 0 0 0
SMALL
GASTEIGER

@<TRIPOS>ATOM
      1 C         144.3390  142.2757  161.2647 C.ar    1  UNL1        0.0536
      2 C         143.5239  143.4180  161.7943 C.ar    1  UNL1        0.0042
      3 C         143.4278  143.6484  163.2733 C.ar    1  UNL1       -0.0041
      4 C         144.1467  142.7365  164.2228 C.ar    1  UNL1       -0.0208
      5 C         144.9618  141.5941  163.6932 C.ar    1  UNL1       -0.0041
      6 C         145.0580  141.3637  162.2141 C.ar    1  UNL1        0.0042
      7 O         145.3824  142.8635  158.9591 O.2     1  UNL1       -0.2699
      8 C         144.4352  142.0452  159.7856 C.2     1  UNL1        0.2491
      9 N         143.5842  140.9964  159.1330 N.am    1  UNL1       -0.2732
     10 C         142.6370  140.1781  159.9595 C.3     1  UNL1        0.1111
     11 C         141.7860  139.1293  159.3069 C.3     1  UNL1        0.0942
     12 N         141.8822  138.8989  157.8279 N.3     1  UNL1       -0.2647
     13 C         142.8294  139.7172  157.0014 C.3     1  UNL1        0.0942
     14 C         143.6804  140.7660  157.6539 C.3     1  UNL1        0.1111
     15 C         141.0312  137.8501  157.1753 C.3     1  UNL1        0.1187
     16 C         141.6658  136.6138  156.6106 C.ar    1  UNL1        0.0752
     17 C         141.0402  135.9183  155.4381 C.ar    1  UNL1        0.0161
     18 C         141.6748  134.6821  154.8734 C.ar    1  UNL1        0.0028
     19 C         142.9350  134.1413  155.4812 C.ar    1  UNL1        0.0207
     20 C         143.5606  134.8368  156.6538 C.ar    1  UNL1        0.0985
     21 N         142.9260  136.0731  157.2185 N.ar    1  UNL1       -0.2468
     22 C         144.0506  142.9669  165.7019 C.3     1  UNL1        0.0420
     23 C         143.0131  142.2430  166.5078 C.3     1  UNL1        0.0585
     24 C         142.9363  142.1932  168.0050 C.3     1  UNL1        0.0175
     25 C         141.7460  141.3612  168.3806 C.3     1  UNL1        0.0199
     26 C         141.0872  140.8968  167.1155 C.3     1  UNL1        0.0855
     27 N         141.8703  141.4418  165.9581 N.3     1  UNL1       -0.2971
     28 H         141.2727  142.0386  165.3862 H       1  UNL1        0.1233
     29 C         139.8607  140.0382  167.0240 C.3     1  UNL1        0.1470
     30 O         139.1517  139.6075  168.2738 O.3     1  UNL1       -0.3787
     31 H         138.3849  139.0618  168.0388 H       1  UNL1        0.2108
     32 C         139.3431  139.6103  165.6828 C.ar    1  UNL1        0.0055
     33 C         139.6777  138.2488  165.1494 C.ar    1  UNL1       -0.0019
     34 C         139.1601  137.8208  163.8081 C.ar    1  UNL1       -0.0002
     35 C         138.3080  138.7542  163.0003 C.ar    1  UNL1       -0.0000
     36 C         137.9735  140.1157  163.5338 C.ar    1  UNL1       -0.0002
     37 C         138.4910  140.5437  164.8750 C.ar    1  UNL1       -0.0019
@<TRIPOS>BOND
     1     7     8    2
     2     8     1    1
     3     1     2   ar
     4     2     3   ar
     5     3     4   ar
     6     4    22    1
     7    23    22    1
     8    23    24    1
     9    24    25    1
    10    26    25    1
    11    26    29    1
    12    29    30    1
    13    29    32    1
    14    32    33   ar
    15    33    34   ar
    16    34    35   ar
    17    35    36   ar
    18    36    37   ar
    19    26    27    1
    20     4     5   ar
    21     5     6   ar
    22     8     9   am
    23     9    10    1
    24    10    11    1
    25    11    12    1
    26    12    15    1
    27    15    16    1
    28    16    17   ar
    29    17    18   ar
    30    18    19   ar
    31    19    20   ar
    32    20    21   ar
    33    12    13    1
    34    13    14    1
    35     6     1   ar
    36    14     9    1
    37    27    23    1
    38    21    16   ar
    39    37    32   ar
    40    30    31    1
    41    27    28    1
