@<TRIPOS>MOLECULE
*****
 31 34 0 0 0
SMALL
GASTEIGER

@<TRIPOS>ATOM
      1 C         143.4517  142.9696  164.4648 C.ar    1  UNL1        0.1033
      2 C         144.3401  143.4613  165.5689 C.ar    1  UNL1        0.1101
      3 N         143.8064  142.9282  166.8655 N.ar    1  UNL1       -0.2391
      4 C         142.5882  142.1070  166.5627 C.ar    1  UNL1        0.1109
      5 S         142.3690  142.1326  165.0790 S.2     1  UNL1       -0.0643
      6 C         141.7384  141.3867  167.5672 C.3     1  UNL1        0.1548
      7 C         141.3578  141.3742  166.1164 C.3     1  UNL1        0.1705
      8 O         140.1275  140.6415  165.6701 O.3     1  UNL1       -0.3538
      9 C         139.2777  139.9212  166.6746 C.3     1  UNL1        0.1155
     10 C         138.0473  139.1884  166.2282 C.3     1  UNL1        0.0320
     11 C         139.6583  139.9337  168.1254 C.3     1  UNL1        0.0328
     12 C         140.8886  140.6664  168.5717 C.3     1  UNL1        0.0426
     13 C         141.2693  140.6790  170.0226 C.3     1  UNL1        0.0673
     14 S         142.4996  141.4118  170.4689 S.3     1  UNL1       -0.0807
     15 C         143.3494  142.1320  169.4644 C.2     1  UNL1        0.1483
     16 N         144.5798  142.8648  169.9108 N.pl3   1  UNL1       -0.3380
     17 N         142.9688  142.1195  168.0136 N.2     1  UNL1       -0.2464
     18 H         144.8296  142.8730  170.8630 H       1  UNL1        0.1442
     19 H         145.1375  143.3376  169.2515 H       1  UNL1        0.1442
     20 N         142.9335  142.4018  161.9831 N.am    1  UNL1       -0.2653
     21 C         143.6170  143.2633  163.0032 C.2     1  UNL1        0.2581
     22 O         144.4659  144.4185  162.5618 O.2     1  UNL1       -0.2692
     23 H         142.3764  141.6436  162.2728 H       1  UNL1        0.1566
     24 C         142.7142  144.2602  158.4832 C.ar    1  UNL1        0.2261
     25 C         143.4298  143.2832  157.5982 C.ar    1  UNL1        0.0578
     26 C         143.9800  142.0124  158.1747 C.ar    1  UNL1        0.0077
     27 C         143.8146  141.7186  159.6363 C.ar    1  UNL1        0.0347
     28 C         143.0989  142.6956  160.5215 C.ar    1  UNL1        0.1375
     29 N         142.5487  143.9664  159.9449 N.ar    1  UNL1       -0.1966
     30 C         140.6839  145.7740  157.9038 C.3     1  UNL1        0.2542
     31 O         142.1640  145.5310  157.9067 O.3     1  UNL1       -0.4561
@<TRIPOS>BOND
     1    30    31    1
     2    31    24    1
     3    24    25   ar
     4    25    26   ar
     5    26    27   ar
     6    27    28   ar
     7    28    20    1
     8    20    21   am
     9    21    22    2
    10    21     1    1
    11     1     2   ar
    12     2     3   ar
    13     3     4   ar
    14     6     4    1
    15     6     7    1
    16     7     8    1
    17     8     9    1
    18     9    10    1
    19     9    11    1
    20    12    11    1
    21    12    13    1
    22    13    14    1
    23    14    15    1
    24    15    16    1
    25    15    17    2
    26     4     5   ar
    27    28    29   ar
    28    29    24   ar
    29     5     1   ar
    30    12     6    1
    31    17     6    1
    32    20    23    1
    33    16    18    1
    34    16    19    1
@<TRIPOS>MOLECULE
*****
 31 34 0 0 0
SMALL
GASTEIGER

@<TRIPOS>ATOM
      1 C         143.7925  141.9506  164.6690 C.ar    1  UNL1        0.1033
      2 C         144.3508  142.9584  165.6296 C.ar    1  UNL1        0.1101
      3 N         143.6264  142.8061  166.9343 N.ar    1  UNL1       -0.2391
      4 C         142.6204  141.7041  166.7799 C.ar    1  UNL1        0.1109
      5 S         142.7231  141.1754  165.3799 S.2     1  UNL1       -0.0643
      6 C         141.6773  141.2165  167.8395 C.3     1  UNL1        0.1548
      7 C         141.3743  140.9646  166.3923 C.3     1  UNL1        0.1705
      8 O         140.1282  140.2251  166.0046 O.3     1  UNL1       -0.3538
      9 C         139.1851  139.7375  167.0642 C.3     1  UNL1        0.1155
     10 C         137.9390  138.9979  166.6765 C.3     1  UNL1        0.0320
     11 C         139.4881  139.9894  168.5115 C.3     1  UNL1        0.0328
     12 C         140.7342  140.7289  168.8992 C.3     1  UNL1        0.0426
     13 C         141.0373  140.9808  170.3465 C.3     1  UNL1        0.0673
     14 S         142.2833  141.7203  170.7342 S.3     1  UNL1       -0.0807
     15 C         143.2264  142.2080  169.6746 C.2     1  UNL1        0.1483
     16 N         144.4726  142.9475  170.0623 N.pl3   1  UNL1       -0.3380
     17 N         142.9234  141.9561  168.2273 N.2     1  UNL1       -0.2464
     18 H         144.6715  143.1128  171.0122 H       1  UNL1        0.1442
     19 H         145.0916  143.2676  169.3668 H       1  UNL1        0.1442
     20 N         143.2199  141.8223  162.1381 N.am    1  UNL1       -0.2653
     21 C         144.2274  141.7528  163.2472 C.2     1  UNL1        0.2581
     22 O         145.6699  141.4854  162.9344 O.2     1  UNL1       -0.2692
     23 H         142.2731  141.9978  162.3434 H       1  UNL1        0.1566
     24 C         143.8191  140.1241  158.6015 C.ar    1  UNL1        0.2261
     25 C         144.5248  141.2288  157.8725 C.ar    1  UNL1        0.0578
     26 C         144.7955  142.5314  158.5653 C.ar    1  UNL1        0.0077
     27 C         144.3605  142.7293  159.9872 C.ar    1  UNL1        0.0347
     28 C         143.6548  141.6245  160.7163 C.ar    1  UNL1        0.1375
     29 N         143.3841  140.3219  160.0235 N.ar    1  UNL1       -0.1966
     30 C         142.2520  138.6128  157.1838 C.3     1  UNL1        0.2542
     31 O         143.5484  138.8215  157.9087 O.3     1  UNL1       -0.4561
@<TRIPOS>BOND
     1    30    31    1
     2    31    24    1
     3    24    25   ar
     4    25    26   ar
     5    26    27   ar
     6    27    28   ar
     7    28    20    1
     8    20    21   am
     9    21    22    2
    10    21     1    1
    11     1     2   ar
    12     2     3   ar
    13     3     4   ar
    14     6     4    1
    15     6     7    1
    16     7     8    1
    17     8     9    1
    18     9    10    1
    19     9    11    1
    20    12    11    1
    21    12    13    1
    22    13    14    1
    23    14    15    1
    24    15    16    1
    25    15    17    2
    26     4     5   ar
    27    28    29   ar
    28    29    24   ar
    29     5     1   ar
    30    12     6    1
    31    17     6    1
    32    20    23    1
    33    16    18    1
    34    16    19    1
@<TRIPOS>MOLECULE
*****
 31 34 0 0 0
SMALL
GASTEIGER

@<TRIPOS>ATOM
      1 C         141.4883  144.3542  159.4364 C.ar    1  UNL1        0.1033
      2 C         141.8164  142.9034  159.2425 C.ar    1  UNL1        0.1101
      3 N         141.8777  142.2572  160.5948 N.ar    1  UNL1       -0.2391
      4 C         141.5875  143.3087  161.6245 C.ar    1  UNL1        0.1109
      5 S         141.3469  144.6047  160.9085 S.2     1  UNL1       -0.0643
      6 C         141.5454  143.1007  163.1094 C.3     1  UNL1        0.1548
      7 C         140.5043  143.9489  162.4411 C.3     1  UNL1        0.1705
      8 O         139.4211  144.5890  163.2576 O.3     1  UNL1       -0.3538
      9 C         139.3789  144.3810  164.7425 C.3     1  UNL1        0.1155
     10 C         138.2956  145.0212  165.5591 C.3     1  UNL1        0.0320
     11 C         140.4200  143.5329  165.4109 C.3     1  UNL1        0.0328
     12 C         141.5033  142.8928  164.5943 C.3     1  UNL1        0.0426
     13 C         142.5444  142.0446  165.2627 C.3     1  UNL1        0.0673
     14 S         143.6277  141.4044  164.4462 S.3     1  UNL1       -0.0807
     15 C         143.6698  141.6124  162.9612 C.2     1  UNL1        0.1483
     16 N         144.7531  140.9722  162.1447 N.pl3   1  UNL1       -0.3380
     17 N         142.6287  142.4605  162.2929 N.2     1  UNL1       -0.2464
     18 H         145.4364  140.4156  162.5834 H       1  UNL1        0.1442
     19 H         144.7808  141.1087  161.1701 H       1  UNL1        0.1442
     20 N         140.0132  145.5231  157.6455 N.am    1  UNL1       -0.2653
     21 C         141.3296  145.3751  158.3490 C.2     1  UNL1        0.2581
     22 O         142.4875  146.2481  157.9652 O.2     1  UNL1       -0.2692
     23 H         139.2532  144.9501  157.8974 H       1  UNL1        0.1566
     24 C         138.8616  148.7890  155.7070 C.ar    1  UNL1        0.2261
     25 C         139.5373  148.5861  154.3833 C.ar    1  UNL1        0.0578
     26 C         140.3716  147.3621  154.1470 C.ar    1  UNL1        0.0077
     27 C         140.5303  146.3411  155.2343 C.ar    1  UNL1        0.0347
     28 C         139.8545  146.5441  156.5581 C.ar    1  UNL1        0.1375
     29 N         139.0202  147.7680  156.7944 N.ar    1  UNL1       -0.1966
     30 C         138.5165  151.3543  155.4837 C.3     1  UNL1        0.2542
     31 O         138.0272  150.0130  155.9433 O.3     1  UNL1       -0.4561
@<TRIPOS>BOND
     1    30    31    1
     2    31    24    1
     3    24    25   ar
     4    25    26   ar
     5    26    27   ar
     6    27    28   ar
     7    28    20    1
     8    20    21   am
     9    21    22    2
    10    21     1    1
    11     1     2   ar
    12     2     3   ar
    13     3     4   ar
    14     6     4    1
    15     6     7    1
    16     7     8    1
    17     8     9    1
    18     9    10    1
    19     9    11    1
    20    12    11    1
    21    12    13    1
    22    13    14    1
    23    14    15    1
    24    15    16    1
    25    15    17    2
    26     4     5   ar
    27    28    29   ar
    28    29    24   ar
    29     5     1   ar
    30    12     6    1
    31    17     6    1
    32    20    23    1
    33    16    18    1
    34    16    19    1
@<TRIPOS>MOLECULE
*****
 31 34 0 0 0
SMALL
GASTEIGER

@<TRIPOS>ATOM
      1 C         142.5312  142.9048  163.6709 C.ar    1  UNL1        0.1033
      2 C         143.4441  144.0950  163.6628 C.ar    1  UNL1        0.1101
      3 N         143.5639  144.5778  162.2477 N.ar    1  UNL1       -0.2391
      4 C         142.7248  143.6860  161.3811 C.ar    1  UNL1        0.1109
      5 S         142.0866  142.6521  162.2607 S.2     1  UNL1       -0.0643
      6 C         142.5540  143.8070  159.8958 C.3     1  UNL1        0.1548
      7 C         143.6639  142.9687  160.4573 C.3     1  UNL1        0.1705
      8 O         144.6030  142.2513  159.5335 O.3     1  UNL1       -0.3538
      9 C         144.4322  142.3723  158.0482 C.3     1  UNL1        0.1155
     10 C         145.3713  141.6549  157.1243 C.3     1  UNL1        0.0320
     11 C         143.3223  143.2106  157.4867 C.3     1  UNL1        0.0328
     12 C         142.3832  143.9279  158.4105 C.3     1  UNL1        0.0426
     13 C         141.2732  144.7663  157.8490 C.3     1  UNL1        0.0673
     14 S         140.3342  145.4837  158.7728 S.3     1  UNL1       -0.0807
     15 C         140.5050  145.3627  160.2581 C.2     1  UNL1        0.1483
     16 N         139.5658  146.0801  161.1820 N.pl3   1  UNL1       -0.3380
     17 N         141.6148  144.5244  160.8196 N.2     1  UNL1       -0.2464
     18 H         138.8373  146.6304  160.8134 H       1  UNL1        0.1442
     19 H         139.6779  146.0008  162.1568 H       1  UNL1        0.1442
     20 N         141.2241  142.7096  165.9076 N.am    1  UNL1       -0.2653
     21 C         142.1328  142.1075  164.8773 C.2     1  UNL1        0.2581
     22 O         142.6431  140.7080  165.0533 O.2     1  UNL1       -0.2692
     23 H         140.8891  143.6281  165.7921 H       1  UNL1        0.1566
     24 C         139.3428  140.0840  168.2137 C.ar    1  UNL1        0.2261
     25 C         140.0290  140.3173  169.5269 C.ar    1  UNL1        0.0578
     26 C         141.1136  141.3480  169.6338 C.ar    1  UNL1        0.0077
     27 C         141.5120  142.1454  168.4274 C.ar    1  UNL1        0.0347
     28 C         140.8257  141.9122  167.1140 C.ar    1  UNL1        0.1375
     29 N         139.7411  140.8815  167.0072 N.ar    1  UNL1       -0.1966
     30 C         137.8216  138.5611  166.7589 C.3     1  UNL1        0.2542
     31 O         138.2582  139.0534  168.1068 O.3     1  UNL1       -0.4561
@<TRIPOS>BOND
     1    30    31    1
     2    31    24    1
     3    24    25   ar
     4    25    26   ar
     5    26    27   ar
     6    27    28   ar
     7    28    20    1
     8    20    21   am
     9    21    22    2
    10    21     1    1
    11     1     2   ar
    12     2     3   ar
    13     3     4   ar
    14     6     4    1
    15     6     7    1
    16     7     8    1
    17     8     9    1
    18     9    10    1
    19     9    11    1
    20    12    11    1
    21    12    13    1
    22    13    14    1
    23    14    15    1
    24    15    16    1
    25    15    17    2
    26     4     5   ar
    27    28    29   ar
    28    29    24   ar
    29     5     1   ar
    30    12     6    1
    31    17     6    1
    32    20    23    1
    33    16    18    1
    34    16    19    1
@<TRIPOS>MOLECULE
*****
 31 34 0 0 0
SMALL
GASTEIGER

@<TRIPOS>ATOM
      1 C         141.1382  144.3933  159.1135 C.ar    1  UNL1        0.1033
      2 C         140.8760  142.9314  158.9039 C.ar    1  UNL1        0.1101
      3 N         141.0537  142.2351  160.2207 N.ar    1  UNL1       -0.2391
      4 C         141.4258  143.2669  161.2440 C.ar    1  UNL1        0.1109
      5 S         141.4780  144.6007  160.5597 S.2     1  UNL1       -0.0643
      6 C         141.6979  143.0099  162.6966 C.3     1  UNL1        0.1548
      7 C         142.7617  142.7378  161.6747 C.3     1  UNL1        0.1705
      8 O         144.0975  142.2087  162.1053 O.3     1  UNL1       -0.3538
      9 C         144.3696  141.9517  163.5579 C.3     1  UNL1        0.1155
     10 C         145.7055  141.4226  163.9886 C.3     1  UNL1        0.0320
     11 C         143.3058  142.2239  164.5798 C.3     1  UNL1        0.0328
     12 C         141.9700  142.7530  164.1491 C.3     1  UNL1        0.0426
     13 C         140.9061  143.0251  165.1710 C.3     1  UNL1        0.0673
     14 S         139.5703  143.5542  164.7404 S.3     1  UNL1       -0.0807
     15 C         139.2982  143.8112  163.2878 C.2     1  UNL1        0.1483
     16 N         137.9623  144.3403  162.8572 N.pl3   1  UNL1       -0.3380
     17 N         140.3620  143.5391  162.2659 N.2     1  UNL1       -0.2464
     18 H         137.2641  144.5189  163.5279 H       1  UNL1        0.1442
     19 H         137.7837  144.5090  161.9038 H       1  UNL1        0.1442
     20 N         139.7923  145.7022  157.3176 N.am    1  UNL1       -0.2653
     21 C         141.0722  145.4605  158.0615 C.2     1  UNL1        0.2581
     22 O         142.2862  146.2860  157.7534 O.2     1  UNL1       -0.2692
     23 H         138.9956  145.1604  157.5198 H       1  UNL1        0.1566
     24 C         138.8557  149.0792  155.4550 C.ar    1  UNL1        0.2261
     25 C         139.5946  148.9038  154.1615 C.ar    1  UNL1        0.0578
     26 C         140.3994  147.6612  153.9199 C.ar    1  UNL1        0.0077
     27 C         140.4654  146.5940  154.9719 C.ar    1  UNL1        0.0347
     28 C         139.7264  146.7694  156.2656 C.ar    1  UNL1        0.1375
     29 N         138.9216  148.0120  156.5071 N.ar    1  UNL1       -0.1966
     30 C         138.5615  151.6500  155.2223 C.3     1  UNL1        0.2542
     31 O         138.0509  150.3218  155.6965 O.3     1  UNL1       -0.4561
@<TRIPOS>BOND
     1    30    31    1
     2    31    24    1
     3    24    25   ar
     4    25    26   ar
     5    26    27   ar
     6    27    28   ar
     7    28    20    1
     8    20    21   am
     9    21    22    2
    10    21     1    1
    11     1     2   ar
    12     2     3   ar
    13     3     4   ar
    14     6     4    1
    15     6     7    1
    16     7     8    1
    17     8     9    1
    18     9    10    1
    19     9    11    1
    20    12    11    1
    21    12    13    1
    22    13    14    1
    23    14    15    1
    24    15    16    1
    25    15    17    2
    26     4     5   ar
    27    28    29   ar
    28    29    24   ar
    29     5     1   ar
    30    12     6    1
    31    17     6    1
    32    20    23    1
    33    16    18    1
    34    16    19    1
@<TRIPOS>MOLECULE
*****
 31 34 0 0 0
SMALL
GASTEIGER

@<TRIPOS>ATOM
      1 C         144.3044  141.6661  158.9225 C.ar    1  UNL1        0.1033
      2 C         143.3267  140.6482  159.4306 C.ar    1  UNL1        0.1101
      3 N         142.6988  141.1917  160.6797 N.ar    1  UNL1       -0.2391
      4 C         143.2885  142.5455  160.9437 C.ar    1  UNL1        0.1109
      5 S         144.2808  142.8386  159.8577 S.2     1  UNL1       -0.0643
      6 C         142.9460  143.4478  162.0920 C.3     1  UNL1        0.1548
      7 C         142.1463  143.5105  160.8245 C.3     1  UNL1        0.1705
      8 O         141.0041  144.4755  160.7054 O.3     1  UNL1       -0.3538
      9 C         140.6616  145.3777  161.8537 C.3     1  UNL1        0.1155
     10 C         139.5194  146.3427  161.7346 C.3     1  UNL1        0.0320
     11 C         141.4613  145.3149  163.1212 C.3     1  UNL1        0.0328
     12 C         142.6035  144.3500  163.2404 C.3     1  UNL1        0.0426
     13 C         143.4032  144.2872  164.5079 C.3     1  UNL1        0.0673
     14 S         144.5454  143.3223  164.6270 S.3     1  UNL1       -0.0807
     15 C         144.8879  142.4200  163.4787 C.2     1  UNL1        0.1483
     16 N         146.0301  141.4551  163.5979 N.pl3   1  UNL1       -0.3380
     17 N         144.0882  142.4828  162.2112 N.2     1  UNL1       -0.2464
     18 H         146.5550  141.4139  164.4298 H       1  UNL1        0.1442
     19 H         146.2550  140.8629  162.8442 H       1  UNL1        0.1442
     20 N         146.0323  142.6732  157.2642 N.am    1  UNL1       -0.2653
     21 C         145.1562  141.5344  157.6949 C.2     1  UNL1        0.2581
     22 O         145.1318  140.2638  156.8980 O.2     1  UNL1       -0.2692
     23 H         146.0483  143.5071  157.7873 H       1  UNL1        0.1566
     24 C         149.1516  141.9283  154.9263 C.ar    1  UNL1        0.2261
     25 C         148.5875  142.2779  153.5811 C.ar    1  UNL1        0.0578
     26 C         147.1717  142.7593  153.4636 C.ar    1  UNL1        0.0077
     27 C         146.3199  142.8910  154.6912 C.ar    1  UNL1        0.0347
     28 C         146.8840  142.5414  156.0365 C.ar    1  UNL1        0.1375
     29 N         148.2998  142.0600  156.1541 N.ar    1  UNL1       -0.1966
     30 C         151.6547  142.1158  154.2564 C.3     1  UNL1        0.2542
     31 O         150.5674  141.4469  155.0438 O.3     1  UNL1       -0.4561
@<TRIPOS>BOND
     1    30    31    1
     2    31    24    1
     3    24    25   ar
     4    25    26   ar
     5    26    27   ar
     6    27    28   ar
     7    28    20    1
     8    20    21   am
     9    21    22    2
    10    21     1    1
    11     1     2   ar
    12     2     3   ar
    13     3     4   ar
    14     6     4    1
    15     6     7    1
    16     7     8    1
    17     8     9    1
    18     9    10    1
    19     9    11    1
    20    12    11    1
    21    12    13    1
    22    13    14    1
    23    14    15    1
    24    15    16    1
    25    15    17    2
    26     4     5   ar
    27    28    29   ar
    28    29    24   ar
    29     5     1   ar
    30    12     6    1
    31    17     6    1
    32    20    23    1
    33    16    18    1
    34    16    19    1
@<TRIPOS>MOLECULE
*****
 31 34 0 0 0
SMALL
GASTEIGER

@<TRIPOS>ATOM
      1 C         144.3496  142.5130  158.5713 C.ar    1  UNL1        0.1033
      2 C         143.2405  143.5168  158.4597 C.ar    1  UNL1        0.1101
      3 N         142.6378  143.6950  159.8218 N.ar    1  UNL1       -0.2391
      4 C         143.3745  142.8013  160.7751 C.ar    1  UNL1        0.1109
      5 S         144.4324  142.0708  160.0022 S.2     1  UNL1       -0.0643
      6 C         143.1012  142.6625  162.2435 C.3     1  UNL1        0.1548
      7 C         144.0366  141.7088  161.5612 C.3     1  UNL1        0.1705
      8 O         144.6987  140.6163  162.3473 O.3     1  UNL1       -0.3538
      9 C         144.4254  140.4774  163.8157 C.3     1  UNL1        0.1155
     10 C         145.0875  139.3849  164.6018 C.3     1  UNL1        0.0320
     11 C         143.4900  141.4312  164.4979 C.3     1  UNL1        0.0328
     12 C         142.8280  142.5237  163.7118 C.3     1  UNL1        0.0426
     13 C         141.8925  143.4775  164.3940 C.3     1  UNL1        0.0673
     14 S         141.2305  144.5700  163.6079 S.3     1  UNL1       -0.0807
     15 C         141.5038  144.7088  162.1396 C.2     1  UNL1        0.1483
     16 N         140.8416  145.8014  161.3535 N.pl3   1  UNL1       -0.3380
     17 N         142.4391  143.7551  161.4573 N.2     1  UNL1       -0.2464
     18 H         140.2277  146.4273  161.8013 H       1  UNL1        0.1442
     19 H         141.0210  145.8925  160.3897 H       1  UNL1        0.1442
     20 N         146.0993  143.0064  156.7153 N.am    1  UNL1       -0.2653
     21 C         145.2225  142.0354  157.4489 C.2     1  UNL1        0.2581
     22 O         145.2186  140.5866  157.0602 O.2     1  UNL1       -0.2692
     23 H         146.1019  143.9572  156.9704 H       1  UNL1        0.1566
     24 C         149.2807  141.7034  154.7324 C.ar    1  UNL1        0.2261
     25 C         148.7181  141.5731  153.3480 C.ar    1  UNL1        0.0578
     26 C         147.2826  141.9206  153.0860 C.ar    1  UNL1        0.0077
     27 C         146.4097  142.3984  154.2084 C.ar    1  UNL1        0.0347
     28 C         146.9723  142.5286  155.5929 C.ar    1  UNL1        0.1375
     29 N         148.4078  142.1811  155.8549 N.ar    1  UNL1       -0.1966
     30 C         151.7651  141.6818  153.9730 C.3     1  UNL1        0.2542
     31 O         150.7162  141.3559  154.9944 O.3     1  UNL1       -0.4561
@<TRIPOS>BOND
     1    30    31    1
     2    31    24    1
     3    24    25   ar
     4    25    26   ar
     5    26    27   ar
     6    27    28   ar
     7    28    20    1
     8    20    21   am
     9    21    22    2
    10    21     1    1
    11     1     2   ar
    12     2     3   ar
    13     3     4   ar
    14     6     4    1
    15     6     7    1
    16     7     8    1
    17     8     9    1
    18     9    10    1
    19     9    11    1
    20    12    11    1
    21    12    13    1
    22    13    14    1
    23    14    15    1
    24    15    16    1
    25    15    17    2
    26     4     5   ar
    27    28    29   ar
    28    29    24   ar
    29     5     1   ar
    30    12     6    1
    31    17     6    1
    32    20    23    1
    33    16    18    1
    34    16    19    1
@<TRIPOS>MOLECULE
*****
 31 34 0 0 0
SMALL
GASTEIGER

@<TRIPOS>ATOM
      1 C         140.2909  144.0188  162.3005 C.ar    1  UNL1        0.1033
      2 C         140.4083  145.0682  163.3658 C.ar    1  UNL1        0.1101
      3 N         140.4067  144.3787  164.6980 N.ar    1  UNL1       -0.2391
      4 C         140.2883  142.9030  164.4559 C.ar    1  UNL1        0.1109
      5 S         140.2168  142.6807  162.9742 S.2     1  UNL1       -0.0643
      6 C         140.2485  141.8370  165.5104 C.3     1  UNL1        0.1548
      7 C         141.3027  142.9028  165.5609 C.3     1  UNL1        0.1705
      8 O         142.3170  142.9026  166.6658 O.3     1  UNL1       -0.3538
      9 C         142.2772  141.8366  167.7203 C.3     1  UNL1        0.1155
     10 C         143.2917  141.8364  168.8253 C.3     1  UNL1        0.0320
     11 C         141.2230  140.7707  167.6698 C.3     1  UNL1        0.0328
     12 C         140.2086  140.7709  166.5649 C.3     1  UNL1        0.0426
     13 C         139.1544  139.7050  166.5144 C.3     1  UNL1        0.0673
     14 S         138.1400  139.7052  165.4094 S.3     1  UNL1       -0.0807
     15 C         138.1798  140.7713  164.3549 C.2     1  UNL1        0.1483
     16 N         137.1654  140.7714  163.2499 N.pl3   1  UNL1       -0.3380
     17 N         139.2340  141.8371  164.4054 N.2     1  UNL1       -0.2464
     18 H         136.4735  140.0719  163.2168 H       1  UNL1        0.1442
     19 H         137.1915  141.4711  162.5578 H       1  UNL1        0.1442
     20 N         141.2789  145.1548  160.1831 N.am    1  UNL1       -0.2653
     21 C         140.2541  144.2645  160.8213 C.2     1  UNL1        0.2581
     22 O         139.1926  143.6198  159.9801 O.2     1  UNL1       -0.2692
     23 H         141.9756  145.5779  160.7352 H       1  UNL1        0.1566
     24 C         140.1114  146.4828  156.6301 C.ar    1  UNL1        0.2261
     25 C         141.1685  145.8916  155.7452 C.ar    1  UNL1        0.0578
     26 C         142.2623  145.0548  156.3395 C.ar    1  UNL1        0.0077
     27 C         142.2992  144.8092  157.8188 C.ar    1  UNL1        0.0347
     28 C         141.2421  145.4004  158.7038 C.ar    1  UNL1        0.1375
     29 N         140.1482  146.2372  158.1095 N.ar    1  UNL1       -0.1966
     30 C         139.2769  148.1217  154.7951 C.3     1  UNL1        0.2542
     31 O         139.0175  147.3196  156.0357 O.3     1  UNL1       -0.4561
@<TRIPOS>BOND
     1    30    31    1
     2    31    24    1
     3    24    25   ar
     4    25    26   ar
     5    26    27   ar
     6    27    28   ar
     7    28    20    1
     8    20    21   am
     9    21    22    2
    10    21     1    1
    11     1     2   ar
    12     2     3   ar
    13     3     4   ar
    14     6     4    1
    15     6     7    1
    16     7     8    1
    17     8     9    1
    18     9    10    1
    19     9    11    1
    20    12    11    1
    21    12    13    1
    22    13    14    1
    23    14    15    1
    24    15    16    1
    25    15    17    2
    26     4     5   ar
    27    28    29   ar
    28    29    24   ar
    29     5     1   ar
    30    12     6    1
    31    17     6    1
    32    20    23    1
    33    16    18    1
    34    16    19    1
@<TRIPOS>MOLECULE
*****
 31 34 0 0 0
SMALL
GASTEIGER

@<TRIPOS>ATOM
      1 C         139.9513  141.8131  161.9071 C.ar    1  UNL1        0.1033
      2 C         141.4510  141.7940  161.9311 C.ar    1  UNL1        0.1101
      3 N         141.8880  141.4551  163.3255 N.ar    1  UNL1       -0.2391
      4 C         140.6583  141.2648  164.1632 C.ar    1  UNL1        0.1109
      5 S         139.4614  141.4860  163.2866 S.2     1  UNL1       -0.0643
      6 C         140.6304  140.9147  165.6215 C.3     1  UNL1        0.1548
      7 C         139.5721  140.3816  164.7019 C.3     1  UNL1        0.1705
      8 O         138.4860  139.4984  165.2405 O.3     1  UNL1       -0.3538
      9 C         138.4581  139.1483  166.6988 C.3     1  UNL1        0.1155
     10 C         137.3718  138.2651  167.2375 C.3     1  UNL1        0.0320
     11 C         139.5164  139.6814  167.6185 C.3     1  UNL1        0.0328
     12 C         140.6025  140.5646  167.0798 C.3     1  UNL1        0.0426
     13 C         141.6609  141.0977  167.9995 C.3     1  UNL1        0.0673
     14 S         142.7471  141.9808  167.4608 S.3     1  UNL1       -0.0807
     15 C         142.7749  142.3310  166.0025 C.2     1  UNL1        0.1483
     16 N         143.8612  143.2142  165.4639 N.pl3   1  UNL1       -0.3380
     17 N         141.7167  141.7979  165.0829 N.2     1  UNL1       -0.2464
     18 H         144.5558  143.5641  166.0675 H       1  UNL1        0.1442
     19 H         143.8795  143.4440  164.5068 H       1  UNL1        0.1442
     20 N         139.2518  141.3024  159.4577 N.am    1  UNL1       -0.2653
     21 C         139.0925  142.1076  160.7131 C.2     1  UNL1        0.2581
     22 O         138.0742  143.2074  160.7747 O.2     1  UNL1       -0.2692
     23 H         139.9201  140.5806  159.4173 H       1  UNL1        0.1566
     24 C         136.4672  140.9217  156.6556 C.ar    1  UNL1        0.2261
     25 C         136.6749  142.1861  155.8758 C.ar    1  UNL1        0.0578
     26 C         137.7416  143.1560  156.2900 C.ar    1  UNL1        0.0077
     27 C         138.6006  142.8614  157.4839 C.ar    1  UNL1        0.0347
     28 C         138.3928  141.5969  158.2637 C.ar    1  UNL1        0.1375
     29 N         137.3261  140.6271  157.8496 N.ar    1  UNL1       -0.1966
     30 C         133.9727  140.4019  156.1487 C.3     1  UNL1        0.2542
     31 O         135.4005  139.9518  156.2414 O.3     1  UNL1       -0.4561
@<TRIPOS>BOND
     1    30    31    1
     2    31    24    1
     3    24    25   ar
     4    25    26   ar
     5    26    27   ar
     6    27    28   ar
     7    28    20    1
     8    20    21   am
     9    21    22    2
    10    21     1    1
    11     1     2   ar
    12     2     3   ar
    13     3     4   ar
    14     6     4    1
    15     6     7    1
    16     7     8    1
    17     8     9    1
    18     9    10    1
    19     9    11    1
    20    12    11    1
    21    12    13    1
    22    13    14    1
    23    14    15    1
    24    15    16    1
    25    15    17    2
    26     4     5   ar
    27    28    29   ar
    28    29    24   ar
    29     5     1   ar
    30    12     6    1
    31    17     6    1
    32    20    23    1
    33    16    18    1
    34    16    19    1
