@<TRIPOS>MOLECULE
*****
 37 40 0 0 0
SMALL
GASTEIGER

@<TRIPOS>ATOM
      1 C         139.3975  139.6824  160.3956 C.ar    1  UNL1        0.0597
      2 C         139.3006  138.7715  161.5833 C.ar    1  UNL1        0.0422
      3 C         138.6372  139.2477  162.8415 C.ar    1  UNL1        0.1485
      4 C         138.0707  140.6349  162.9119 C.ar    1  UNL1        0.0743
      5 C         138.1675  141.5457  161.7241 C.ar    1  UNL1        0.1417
      6 C         138.8309  141.0695  160.4659 C.ar    1  UNL1        0.0416
      7 N         139.3158  138.3162  158.1872 N.am    1  UNL1       -0.2644
      8 C         140.0609  139.2061  159.1373 C.2     1  UNL1        0.2508
      9 O         141.4694  139.6199  158.8292 O.2     1  UNL1       -0.2698
     10 H         138.3914  138.0446  158.3894 H       1  UNL1        0.1566
     11 N         141.5093  136.7377  155.4010 N.ar    1  UNL1       -0.2502
     12 C         140.4908  137.4767  154.5843 C.ar    1  UNL1        0.0979
     13 C         139.5451  138.1579  155.5287 C.ar    1  UNL1        0.0564
     14 C         139.9792  137.8400  156.9289 C.ar    1  UNL1        0.1557
     15 N         141.1931  136.9623  156.8499 N.ar    1  UNL1       -0.1541
     16 C         142.4022  134.9377  153.7540 C.3     1  UNL1        0.0263
     17 C         142.6445  135.9182  154.8630 C.3     1  UNL1        0.1054
     18 C         144.0222  136.0791  155.4341 C.3     1  UNL1        0.0263
     19 O         138.5404  138.3369  164.0294 O.3     1  UNL1       -0.4534
     20 C         138.7910  138.8727  165.4078 C.ar    1  UNL1        0.1453
     21 C         137.7927  138.6286  166.5004 C.ar    1  UNL1        0.0376
     22 C         138.0433  139.1644  167.8789 C.ar    1  UNL1        0.0076
     23 C         139.2924  139.9445  168.1646 C.ar    1  UNL1        0.0538
     24 C         140.2906  140.1886  167.0720 C.ar    1  UNL1        0.0076
     25 C         140.0400  139.6527  165.6936 C.ar    1  UNL1        0.0376
     26 C         139.5430  140.4803  169.5430 C.2     1  UNL1        0.2490
     27 O         139.3188  139.6050  170.7403 O.2     1  UNL1       -0.2699
     28 N         140.0179  141.8917  169.7242 N.am    1  UNL1       -0.2760
     29 C         140.3430  143.0282  168.8008 C.3     1  UNL1        0.0955
     30 C         140.6896  143.8875  169.9804 C.3     1  UNL1        0.0430
     31 C         140.3645  142.7509  170.9038 C.3     1  UNL1        0.0955
     32 O         137.6010  142.9328  161.7945 O.3     1  UNL1       -0.4765
     33 C         138.2196  143.9502  162.7067 C.3     1  UNL1        0.1951
     34 C         137.7198  144.0988  164.1132 C.3     1  UNL1        0.0500
     35 C         139.3380  144.8191  162.2125 C.3     1  UNL1        0.1807
     36 O         139.0334  146.1354  161.5609 O.3     1  UNL1       -0.3785
     37 H         138.5656  145.9819  160.7251 H       1  UNL1        0.2106
@<TRIPOS>BOND
     1    16    17    1
     2    17    18    1
     3    17    11    1
     4    11    12   ar
     5    12    13   ar
     6    13    14   ar
     7    14     7    1
     8     7     8   am
     9     8     9    2
    10     8     1    1
    11     1     2   ar
    12     2     3   ar
    13     3    19    1
    14    19    20    1
    15    20    21   ar
    16    21    22   ar
    17    22    23   ar
    18    23    26    1
    19    26    27    2
    20    26    28   am
    21    28    29    1
    22    29    30    1
    23    30    31    1
    24    23    24   ar
    25    24    25   ar
    26     3     4   ar
    27     4     5   ar
    28     5    32    1
    29    32    33    1
    30    33    34    1
    31    33    35    1
    32    35    36    1
    33     5     6   ar
    34    14    15   ar
    35    15    11   ar
    36     6     1   ar
    37    25    20   ar
    38    31    28    1
    39     7    10    1
    40    36    37    1
@<TRIPOS>MOLECULE
*****
 37 40 0 0 0
SMALL
GASTEIGER

@<TRIPOS>ATOM
      1 C         140.7297  139.0589  160.2198 C.ar    1  UNL1        0.0597
      2 C         140.4706  138.2058  161.4260 C.ar    1  UNL1        0.0422
      3 C         140.1806  138.8478  162.7503 C.ar    1  UNL1        0.1485
      4 C         140.1497  140.3428  162.8683 C.ar    1  UNL1        0.0743
      5 C         140.4088  141.1959  161.6621 C.ar    1  UNL1        0.1417
      6 C         140.6988  140.5539  160.3378 C.ar    1  UNL1        0.0416
      7 N         142.4016  137.9203  158.5893 N.am    1  UNL1       -0.2644
      8 C         141.0198  138.4170  158.8954 C.2     1  UNL1        0.2508
      9 O         139.9279  138.2718  157.8772 O.2     1  UNL1       -0.2698
     10 H         143.1182  138.0156  159.2576 H       1  UNL1        0.1566
     11 N         142.8583  135.6423  155.4800 N.ar    1  UNL1       -0.2502
     12 C         143.4176  136.9389  154.9740 C.ar    1  UNL1        0.0979
     13 C         143.3146  137.9501  156.0772 C.ar    1  UNL1        0.0564
     14 C         142.6916  137.2783  157.2649 C.ar    1  UNL1        0.1557
     15 N         142.4096  135.8521  156.8958 N.ar    1  UNL1       -0.1541
     16 C         143.3442  133.0986  155.2717 C.3     1  UNL1        0.0263
     17 C         142.7641  134.3609  154.7060 C.3     1  UNL1        0.1054
     18 C         142.0899  134.3418  153.3662 C.3     1  UNL1        0.0263
     19 O         139.9215  137.9947  163.9566 O.3     1  UNL1       -0.4534
     20 C         139.7883  138.6292  165.3093 C.ar    1  UNL1        0.1453
     21 C         138.4536  138.6641  165.9932 C.ar    1  UNL1        0.0376
     22 C         138.3204  139.2985  167.3458 C.ar    1  UNL1        0.0076
     23 C         139.5219  139.8981  168.0146 C.ar    1  UNL1        0.0538
     24 C         140.8564  139.8632  167.3307 C.ar    1  UNL1        0.0076
     25 C         140.9896  139.2288  165.9780 C.ar    1  UNL1        0.0376
     26 C         139.3887  140.5326  169.3672 C.2     1  UNL1        0.2490
     27 O         138.8045  139.7524  170.5074 O.2     1  UNL1       -0.2699
     28 N         139.8397  141.9474  169.5797 N.am    1  UNL1       -0.2760
     29 C         140.4515  143.0073  168.7123 C.3     1  UNL1        0.0955
     30 C         140.4775  143.9481  169.8803 C.3     1  UNL1        0.0430
     31 C         139.8657  142.8882  170.7477 C.3     1  UNL1        0.0955
     32 O         140.3780  142.6909  161.7801 O.3     1  UNL1       -0.4765
     33 C         141.2215  143.3794  162.8118 C.3     1  UNL1        0.1951
     34 C         140.6264  143.7597  164.1351 C.3     1  UNL1        0.0500
     35 C         142.6603  143.6876  162.5201 C.3     1  UNL1        0.1807
     36 O         143.0571  145.0636  162.0741 O.3     1  UNL1       -0.3785
     37 H         142.6724  145.2444  161.2022 H       1  UNL1        0.2106
@<TRIPOS>BOND
     1    16    17    1
     2    17    18    1
     3    17    11    1
     4    11    12   ar
     5    12    13   ar
     6    13    14   ar
     7    14     7    1
     8     7     8   am
     9     8     9    2
    10     8     1    1
    11     1     2   ar
    12     2     3   ar
    13     3    19    1
    14    19    20    1
    15    20    21   ar
    16    21    22   ar
    17    22    23   ar
    18    23    26    1
    19    26    27    2
    20    26    28   am
    21    28    29    1
    22    29    30    1
    23    30    31    1
    24    23    24   ar
    25    24    25   ar
    26     3     4   ar
    27     4     5   ar
    28     5    32    1
    29    32    33    1
    30    33    34    1
    31    33    35    1
    32    35    36    1
    33     5     6   ar
    34    14    15   ar
    35    15    11   ar
    36     6     1   ar
    37    25    20   ar
    38    31    28    1
    39     7    10    1
    40    36    37    1
@<TRIPOS>MOLECULE
*****
 37 40 0 0 0
SMALL
GASTEIGER

@<TRIPOS>ATOM
      1 C         143.6232  139.5471  160.9827 C.ar    1  UNL1        0.0597
      2 C         143.1680  138.6491  162.0945 C.ar    1  UNL1        0.0422
      3 C         143.3750  139.0593  163.5223 C.ar    1  UNL1        0.1485
      4 C         144.0372  140.3677  163.8383 C.ar    1  UNL1        0.0743
      5 C         144.4923  141.2657  162.7265 C.ar    1  UNL1        0.1417
      6 C         144.2853  140.8555  161.2987 C.ar    1  UNL1        0.0416
      7 N         142.3734  138.1148  159.2116 N.am    1  UNL1       -0.2644
      8 C         143.4162  139.1369  159.5547 C.2     1  UNL1        0.2508
      9 O         144.2522  139.7488  158.4699 O.2     1  UNL1       -0.2698
     10 H         141.8247  137.7132  159.9236 H       1  UNL1        0.1566
     11 N         141.3799  137.6511  155.4882 N.ar    1  UNL1       -0.2502
     12 C         142.3160  136.4955  155.6846 C.ar    1  UNL1        0.0979
     13 C         142.8020  136.5286  157.1033 C.ar    1  UNL1        0.0564
     14 C         142.1664  137.7046  157.7837 C.ar    1  UNL1        0.1557
     15 N         141.2875  138.3983  156.7856 N.ar    1  UNL1       -0.1541
     16 C         140.7851  139.3772  153.6398 C.3     1  UNL1        0.0263
     17 C         140.6624  137.9984  154.2177 C.3     1  UNL1        0.1054
     18 C         139.8220  136.9670  153.5250 C.3     1  UNL1        0.0263
     19 O         142.9199  138.1612  164.6343 O.3     1  UNL1       -0.4534
     20 C         142.2899  138.7484  165.8624 C.ar    1  UNL1        0.1453
     21 C         143.0916  138.8889  167.1225 C.ar    1  UNL1        0.0376
     22 C         142.4616  139.4761  168.3507 C.ar    1  UNL1        0.0076
     23 C         141.0300  139.9229  168.3187 C.ar    1  UNL1        0.0538
     24 C         140.2284  139.7824  167.0587 C.ar    1  UNL1        0.0076
     25 C         140.8584  139.1952  165.8306 C.ar    1  UNL1        0.0376
     26 C         140.4001  140.5101  169.5469 C.2     1  UNL1        0.2490
     27 O         139.8509  139.6083  170.6123 O.2     1  UNL1       -0.2699
     28 N         140.3194  141.9991  169.7096 N.am    1  UNL1       -0.2760
     29 C         140.7437  143.1804  168.8883 C.3     1  UNL1        0.0955
     30 C         140.2052  144.1048  169.9397 C.3     1  UNL1        0.0430
     31 C         139.7809  142.9235  170.7610 C.3     1  UNL1        0.0955
     32 O         145.1544  142.5741  163.0425 O.3     1  UNL1       -0.4765
     33 C         144.4203  143.6138  163.8361 C.3     1  UNL1        0.1951
     34 C         144.4820  143.5956  165.3347 C.3     1  UNL1        0.0500
     35 C         143.6243  144.6719  163.1311 C.3     1  UNL1        0.1807
     36 O         142.4447  144.2864  162.2885 O.3     1  UNL1       -0.3785
     37 H         142.7481  143.7742  161.5226 H       1  UNL1        0.2106
@<TRIPOS>BOND
     1    16    17    1
     2    17    18    1
     3    17    11    1
     4    11    12   ar
     5    12    13   ar
     6    13    14   ar
     7    14     7    1
     8     7     8   am
     9     8     9    2
    10     8     1    1
    11     1     2   ar
    12     2     3   ar
    13     3    19    1
    14    19    20    1
    15    20    21   ar
    16    21    22   ar
    17    22    23   ar
    18    23    26    1
    19    26    27    2
    20    26    28   am
    21    28    29    1
    22    29    30    1
    23    30    31    1
    24    23    24   ar
    25    24    25   ar
    26     3     4   ar
    27     4     5   ar
    28     5    32    1
    29    32    33    1
    30    33    34    1
    31    33    35    1
    32    35    36    1
    33     5     6   ar
    34    14    15   ar
    35    15    11   ar
    36     6     1   ar
    37    25    20   ar
    38    31    28    1
    39     7    10    1
    40    36    37    1
@<TRIPOS>MOLECULE
*****
 37 40 0 0 0
SMALL
GASTEIGER

@<TRIPOS>ATOM
      1 C         141.5022  143.5406  159.6276 C.ar    1  UNL1        0.0597
      2 C         140.3687  143.3663  160.5944 C.ar    1  UNL1        0.0422
      3 C         140.4853  142.3775  161.7163 C.ar    1  UNL1        0.1485
      4 C         141.7353  141.5630  161.8713 C.ar    1  UNL1        0.0743
      5 C         142.8688  141.7373  160.9045 C.ar    1  UNL1        0.1417
      6 C         142.7522  142.7261  159.7826 C.ar    1  UNL1        0.0416
      7 N         140.0709  144.7234  157.8104 N.am    1  UNL1       -0.2644
      8 C         141.3857  144.5294  158.5056 C.2     1  UNL1        0.2508
      9 O         142.5842  145.3243  158.0790 O.2     1  UNL1       -0.2698
     10 H         139.2843  144.2017  158.0904 H       1  UNL1        0.1566
     11 N         139.5318  147.7534  155.4451 N.ar    1  UNL1       -0.2502
     12 C         140.0184  146.7143  154.4788 C.ar    1  UNL1        0.0979
     13 C         140.2796  145.4528  155.2473 C.ar    1  UNL1        0.0564
     14 C         139.9544  145.7123  156.6884 C.ar    1  UNL1        0.1557
     15 N         139.4922  147.1340  156.8107 N.ar    1  UNL1       -0.1541
     16 C         139.5678  149.7575  153.7922 C.3     1  UNL1        0.0263
     17 C         139.1516  149.1640  155.1054 C.3     1  UNL1        0.1054
     18 C         138.3551  149.9812  156.0789 C.3     1  UNL1        0.0263
     19 O         139.3518  142.2032  162.6832 O.3     1  UNL1       -0.4534
     20 C         139.6338  142.0307  164.1463 C.ar    1  UNL1        0.1453
     21 C         139.6338  140.6590  164.7535 C.ar    1  UNL1        0.0376
     22 C         139.9158  140.4866  166.2166 C.ar    1  UNL1        0.0076
     23 C         140.1980  141.6857  167.0725 C.ar    1  UNL1        0.0538
     24 C         140.1981  143.0573  166.4652 C.ar    1  UNL1        0.0076
     25 C         139.9160  143.2298  165.0021 C.ar    1  UNL1        0.0376
     26 C         140.4801  141.5133  168.5356 C.2     1  UNL1        0.2490
     27 O         139.3981  141.0325  169.4565 O.2     1  UNL1       -0.2699
     28 N         141.8443  141.8215  169.0778 N.am    1  UNL1       -0.2760
     29 C         143.1355  142.3062  168.4880 C.3     1  UNL1        0.0955
     30 C         143.7735  142.2575  169.8447 C.3     1  UNL1        0.0430
     31 C         142.4823  141.7728  170.4345 C.3     1  UNL1        0.0955
     32 O         144.1188  140.9228  161.0595 O.3     1  UNL1       -0.4765
     33 C         144.4086  140.2339  162.3601 C.3     1  UNL1        0.1951
     34 C         143.9251  138.8328  162.5906 C.3     1  UNL1        0.0500
     35 C         145.1819  140.9460  163.4301 C.3     1  UNL1        0.1807
     36 O         146.2943  141.8800  163.0559 O.3     1  UNL1       -0.3785
     37 H         147.0138  141.3771  162.6431 H       1  UNL1        0.2106
@<TRIPOS>BOND
     1    16    17    1
     2    17    18    1
     3    17    11    1
     4    11    12   ar
     5    12    13   ar
     6    13    14   ar
     7    14     7    1
     8     7     8   am
     9     8     9    2
    10     8     1    1
    11     1     2   ar
    12     2     3   ar
    13     3    19    1
    14    19    20    1
    15    20    21   ar
    16    21    22   ar
    17    22    23   ar
    18    23    26    1
    19    26    27    2
    20    26    28   am
    21    28    29    1
    22    29    30    1
    23    30    31    1
    24    23    24   ar
    25    24    25   ar
    26     3     4   ar
    27     4     5   ar
    28     5    32    1
    29    32    33    1
    30    33    34    1
    31    33    35    1
    32    35    36    1
    33     5     6   ar
    34    14    15   ar
    35    15    11   ar
    36     6     1   ar
    37    25    20   ar
    38    31    28    1
    39     7    10    1
    40    36    37    1
@<TRIPOS>MOLECULE
*****
 37 40 0 0 0
SMALL
GASTEIGER

@<TRIPOS>ATOM
      1 C         141.1709  138.7824  158.3155 C.ar    1  UNL1        0.0597
      2 C         139.9876  138.4172  159.1618 C.ar    1  UNL1        0.0422
      3 C         139.3366  139.4542  160.0283 C.ar    1  UNL1        0.1485
      4 C         139.8691  140.8563  160.0486 C.ar    1  UNL1        0.0743
      5 C         141.0524  141.2216  159.2024 C.ar    1  UNL1        0.1417
      6 C         141.7034  140.1846  158.3358 C.ar    1  UNL1        0.0416
      7 N         140.9777  136.7689  156.6850 N.am    1  UNL1       -0.2644
      8 C         141.8219  137.7455  157.4489 C.2     1  UNL1        0.2508
      9 O         143.3172  137.6851  157.3462 O.2     1  UNL1       -0.2698
     10 H         139.9963  136.8085  156.7524 H       1  UNL1        0.1566
     11 N         142.8164  133.7426  155.0955 N.ar    1  UNL1       -0.2502
     12 C         142.4444  134.5299  153.8741 C.ar    1  UNL1        0.0979
     13 C         141.7103  135.7594  154.3209 C.ar    1  UNL1        0.0564
     14 C         141.6287  135.7319  155.8184 C.ar    1  UNL1        0.1557
     15 N         142.3122  134.4855  156.2971 N.ar    1  UNL1       -0.1541
     16 C         144.6066  132.1885  156.1584 C.3     1  UNL1        0.0263
     17 C         143.5617  132.4411  155.1124 C.3     1  UNL1        0.1054
     18 C         143.2620  131.3919  154.0831 C.3     1  UNL1        0.0263
     19 O         138.1532  139.0890  160.8746 O.3     1  UNL1       -0.4534
     20 C         138.2659  139.1091  162.3703 C.ar    1  UNL1        0.1453
     21 C         138.7387  137.8887  163.1032 C.ar    1  UNL1        0.0376
     22 C         138.8515  137.9089  164.5989 C.ar    1  UNL1        0.0076
     23 C         138.4914  139.1494  165.3615 C.ar    1  UNL1        0.0538
     24 C         138.0186  140.3697  164.6285 C.ar    1  UNL1        0.0076
     25 C         137.9059  140.3495  163.1329 C.ar    1  UNL1        0.0376
     26 C         138.6041  139.1696  166.8571 C.2     1  UNL1        0.2490
     27 O         137.6003  138.4344  167.6949 O.2     1  UNL1       -0.2699
     28 N         139.7208  139.9249  167.5150 N.am    1  UNL1       -0.2760
     29 C         140.8742  140.7508  167.0276 C.3     1  UNL1        0.0955
     30 C         141.2999  140.9930  168.4454 C.3     1  UNL1        0.0430
     31 C         140.1465  140.1670  168.9328 C.3     1  UNL1        0.0955
     32 O         141.5849  142.6237  159.2227 O.3     1  UNL1       -0.4765
     33 C         142.9334  142.9054  159.8161 C.3     1  UNL1        0.1951
     34 C         144.1692  142.7402  158.9821 C.3     1  UNL1        0.0500
     35 C         143.0461  143.3523  161.2435 C.3     1  UNL1        0.1807
     36 O         142.7509  144.7768  161.6090 O.3     1  UNL1       -0.3785
     37 H         143.4131  145.3585  161.2040 H       1  UNL1        0.2106
@<TRIPOS>BOND
     1    16    17    1
     2    17    18    1
     3    17    11    1
     4    11    12   ar
     5    12    13   ar
     6    13    14   ar
     7    14     7    1
     8     7     8   am
     9     8     9    2
    10     8     1    1
    11     1     2   ar
    12     2     3   ar
    13     3    19    1
    14    19    20    1
    15    20    21   ar
    16    21    22   ar
    17    22    23   ar
    18    23    26    1
    19    26    27    2
    20    26    28   am
    21    28    29    1
    22    29    30    1
    23    30    31    1
    24    23    24   ar
    25    24    25   ar
    26     3     4   ar
    27     4     5   ar
    28     5    32    1
    29    32    33    1
    30    33    34    1
    31    33    35    1
    32    35    36    1
    33     5     6   ar
    34    14    15   ar
    35    15    11   ar
    36     6     1   ar
    37    25    20   ar
    38    31    28    1
    39     7    10    1
    40    36    37    1
@<TRIPOS>MOLECULE
*****
 37 40 0 0 0
SMALL
GASTEIGER

@<TRIPOS>ATOM
      1 C         144.2462  141.9072  158.3052 C.ar    1  UNL1        0.0597
      2 C         143.8496  140.6024  158.9297 C.ar    1  UNL1        0.0422
      3 C         142.9749  140.5893  160.1482 C.ar    1  UNL1        0.1485
      4 C         142.4968  141.8810  160.7422 C.ar    1  UNL1        0.0743
      5 C         142.8934  143.1859  160.1177 C.ar    1  UNL1        0.1417
      6 C         143.7681  143.1990  158.8992 C.ar    1  UNL1        0.0416
      7 N         146.3661  142.7564  157.0663 N.am    1  UNL1       -0.2644
      8 C         145.1209  141.9203  157.0867 C.2     1  UNL1        0.2508
      9 O         144.7503  141.0974  155.8886 O.2     1  UNL1       -0.2698
     10 H         146.6093  143.2965  157.8527 H       1  UNL1        0.1566
     11 N         149.0607  142.3148  154.3077 N.ar    1  UNL1       -0.2502
     12 C         148.1128  143.2648  153.6375 C.ar    1  UNL1        0.0979
     13 C         146.9879  143.5458  154.5894 C.ar    1  UNL1        0.0564
     14 C         147.2408  142.7695  155.8477 C.ar    1  UNL1        0.1557
     15 N         148.5218  142.0088  155.6737 N.ar    1  UNL1       -0.1541
     16 C         150.2684  140.9093  152.4867 C.3     1  UNL1        0.0263
     17 C         150.3254  141.7672  153.7159 C.3     1  UNL1        0.1054
     18 C         151.6474  142.0773  154.3532 C.3     1  UNL1        0.0263
     19 O         142.5783  139.2844  160.7728 O.3     1  UNL1       -0.4534
     20 C         142.8079  139.0533  162.2370 C.ar    1  UNL1        0.1453
     21 C         141.7583  138.3692  163.0619 C.ar    1  UNL1        0.0376
     22 C         141.9879  138.1380  164.5261 C.ar    1  UNL1        0.0076
     23 C         143.2671  138.5910  165.1654 C.ar    1  UNL1        0.0538
     24 C         144.3166  139.2751  164.3404 C.ar    1  UNL1        0.0076
     25 C         144.0870  139.5062  162.8762 C.ar    1  UNL1        0.0376
     26 C         143.4967  138.3599  166.6296 C.2     1  UNL1        0.2490
     27 O         144.4910  137.3310  167.0796 O.2     1  UNL1       -0.2699
     28 N         142.7319  139.1578  167.6438 N.am    1  UNL1       -0.2760
     29 C         141.6914  140.2364  167.5795 C.3     1  UNL1        0.0955
     30 C         141.6504  140.2861  169.0781 C.3     1  UNL1        0.0430
     31 C         142.6908  139.2075  169.1424 C.3     1  UNL1        0.0955
     32 O         142.4153  144.4776  160.7117 O.3     1  UNL1       -0.4765
     33 C         141.0143  144.9480  160.4552 C.3     1  UNL1        0.1951
     34 C         140.3730  144.7024  159.1216 C.3     1  UNL1        0.0500
     35 C         140.2544  145.6639  161.5323 C.3     1  UNL1        0.1807
     36 O         139.0827  146.5295  161.1748 O.3     1  UNL1       -0.3785
     37 H         139.3892  147.2914  160.6585 H       1  UNL1        0.2106
@<TRIPOS>BOND
     1    16    17    1
     2    17    18    1
     3    17    11    1
     4    11    12   ar
     5    12    13   ar
     6    13    14   ar
     7    14     7    1
     8     7     8   am
     9     8     9    2
    10     8     1    1
    11     1     2   ar
    12     2     3   ar
    13     3    19    1
    14    19    20    1
    15    20    21   ar
    16    21    22   ar
    17    22    23   ar
    18    23    26    1
    19    26    27    2
    20    26    28   am
    21    28    29    1
    22    29    30    1
    23    30    31    1
    24    23    24   ar
    25    24    25   ar
    26     3     4   ar
    27     4     5   ar
    28     5    32    1
    29    32    33    1
    30    33    34    1
    31    33    35    1
    32    35    36    1
    33     5     6   ar
    34    14    15   ar
    35    15    11   ar
    36     6     1   ar
    37    25    20   ar
    38    31    28    1
    39     7    10    1
    40    36    37    1
@<TRIPOS>MOLECULE
*****
 37 40 0 0 0
SMALL
GASTEIGER

@<TRIPOS>ATOM
      1 C         139.6395  140.0321  160.4942 C.ar    1  UNL1        0.0597
      2 C         138.8366  140.0258  161.7611 C.ar    1  UNL1        0.0422
      3 C         139.5233  139.8523  163.0833 C.ar    1  UNL1        0.1485
      4 C         141.0130  139.6851  163.1386 C.ar    1  UNL1        0.0743
      5 C         141.8159  139.6915  161.8716 C.ar    1  UNL1        0.1417
      6 C         141.1291  139.8650  160.5494 C.ar    1  UNL1        0.0416
      7 N         138.2689  141.5002  158.8461 N.am    1  UNL1       -0.2644
      8 C         138.9528  140.2056  159.1719 C.2     1  UNL1        0.2508
      9 O         138.9499  139.0844  158.1754 O.2     1  UNL1       -0.2698
     10 H         138.2707  142.2361  159.5001 H       1  UNL1        0.1566
     11 N         136.0594  141.3777  155.6572 N.ar    1  UNL1       -0.2502
     12 C         136.9915  142.5038  155.3209 C.ar    1  UNL1        0.0979
     13 C         137.9327  142.6868  156.4746 C.ar    1  UNL1        0.0564
     14 C         137.5821  141.6737  157.5238 C.ar    1  UNL1        0.1557
     15 N         136.4245  140.8647  157.0187 N.ar    1  UNL1       -0.1541
     16 C         133.6594  140.4169  155.3983 C.3     1  UNL1        0.0263
     17 C         134.9560  140.8562  154.7852 C.3     1  UNL1        0.1054
     18 C         135.1492  140.7739  153.3000 C.3     1  UNL1        0.0263
     19 O         138.7204  139.8459  164.3504 O.3     1  UNL1       -0.4534
     20 C         139.2290  140.5657  165.5642 C.ar    1  UNL1        0.1453
     21 C         139.2598  139.8682  166.8918 C.ar    1  UNL1        0.0376
     22 C         139.7683  140.5880  168.1056 C.ar    1  UNL1        0.0076
     23 C         140.2462  142.0053  167.9917 C.ar    1  UNL1        0.0538
     24 C         140.2154  142.7028  166.6641 C.ar    1  UNL1        0.0076
     25 C         139.7068  141.9830  165.4503 C.ar    1  UNL1        0.0376
     26 C         140.7548  142.7251  169.2055 C.2     1  UNL1        0.2490
     27 O         139.7999  143.4691  170.0912 O.2     1  UNL1       -0.2699
     28 N         142.2184  142.7009  169.5334 N.am    1  UNL1       -0.2760
     29 C         143.4354  142.0863  168.9082 C.3     1  UNL1        0.0955
     30 C         144.2881  142.6668  169.9973 C.3     1  UNL1        0.0430
     31 C         143.0710  143.2814  170.6225 C.3     1  UNL1        0.0955
     32 O         143.3055  139.5243  161.9268 O.3     1  UNL1       -0.4765
     33 C         144.0988  140.2168  162.9950 C.3     1  UNL1        0.1951
     34 C         144.5111  139.4678  164.2275 C.3     1  UNL1        0.0500
     35 C         144.4799  141.6583  162.8308 C.3     1  UNL1        0.1807
     36 O         145.7146  142.0247  162.0619 O.3     1  UNL1       -0.3785
     37 H         146.4977  141.7027  162.5352 H       1  UNL1        0.2106
@<TRIPOS>BOND
     1    16    17    1
     2    17    18    1
     3    17    11    1
     4    11    12   ar
     5    12    13   ar
     6    13    14   ar
     7    14     7    1
     8     7     8   am
     9     8     9    2
    10     8     1    1
    11     1     2   ar
    12     2     3   ar
    13     3    19    1
    14    19    20    1
    15    20    21   ar
    16    21    22   ar
    17    22    23   ar
    18    23    26    1
    19    26    27    2
    20    26    28   am
    21    28    29    1
    22    29    30    1
    23    30    31    1
    24    23    24   ar
    25    24    25   ar
    26     3     4   ar
    27     4     5   ar
    28     5    32    1
    29    32    33    1
    30    33    34    1
    31    33    35    1
    32    35    36    1
    33     5     6   ar
    34    14    15   ar
    35    15    11   ar
    36     6     1   ar
    37    25    20   ar
    38    31    28    1
    39     7    10    1
    40    36    37    1
@<TRIPOS>MOLECULE
*****
 37 40 0 0 0
SMALL
GASTEIGER

@<TRIPOS>ATOM
      1 C         143.1306  142.8476  160.1673 C.ar    1  UNL1        0.0597
      2 C         144.0208  142.6536  161.3589 C.ar    1  UNL1        0.0422
      3 C         143.4329  142.6326  162.7387 C.ar    1  UNL1        0.1485
      4 C         141.9548  142.8055  162.9269 C.ar    1  UNL1        0.0743
      5 C         141.0646  142.9995  161.7354 C.ar    1  UNL1        0.1417
      6 C         141.6525  143.0205  160.3556 C.ar    1  UNL1        0.0416
      7 N         144.7447  141.8479  158.3938 N.am    1  UNL1       -0.2644
      8 C         143.7185  142.8686  158.7874 C.2     1  UNL1        0.2508
      9 O         143.2801  143.9104  157.8013 O.2     1  UNL1       -0.2698
     10 H         145.0324  141.1642  159.0410 H       1  UNL1        0.1566
     11 N         146.9007  142.1026  155.1763 N.ar    1  UNL1       -0.2502
     12 C         145.5735  141.7001  154.6047 C.ar    1  UNL1        0.0979
     13 C         144.6043  141.5557  155.7405 C.ar    1  UNL1        0.0564
     14 C         145.3325  141.8690  157.0139 C.ar    1  UNL1        0.1557
     15 N         146.7518  142.2069  156.6652 N.ar    1  UNL1       -0.1541
     16 C         148.0928  143.0949  153.0920 C.3     1  UNL1        0.0263
     17 C         148.1563  142.3561  154.3959 C.3     1  UNL1        0.1054
     18 C         149.4756  141.8709  154.9194 C.3     1  UNL1        0.0263
     19 O         144.3231  142.4386  163.9304 O.3     1  UNL1       -0.4534
     20 C         143.7889  141.7760  165.1656 C.ar    1  UNL1        0.1453
     21 C         143.5058  142.5922  166.3918 C.ar    1  UNL1        0.0376
     22 C         142.9717  141.9296  167.6270 C.ar    1  UNL1        0.0076
     23 C         142.7207  140.4507  167.6359 C.ar    1  UNL1        0.0538
     24 C         143.0039  139.6346  166.4097 C.ar    1  UNL1        0.0076
     25 C         143.5380  140.2972  165.1745 C.ar    1  UNL1        0.0376
     26 C         142.1866  139.7881  168.8711 C.2     1  UNL1        0.2490
     27 O         143.0017  138.7433  169.5739 O.2     1  UNL1       -0.2699
     28 N         140.8373  140.1704  169.4035 N.am    1  UNL1       -0.2760
     29 C         139.7685  141.1377  168.9889 C.3     1  UNL1        0.0955
     30 C         138.9292  140.7109  170.1565 C.3     1  UNL1        0.0430
     31 C         139.9980  139.7436  170.5712 C.3     1  UNL1        0.0955
     32 O         139.5866  143.1724  161.9236 O.3     1  UNL1       -0.4765
     33 C         139.0560  144.3960  162.6100 C.3     1  UNL1        0.1951
     34 C         138.0438  144.2602  163.7086 C.3     1  UNL1        0.0500
     35 C         139.5377  145.7555  162.1978 C.3     1  UNL1        0.1807
     36 O         139.4857  146.1642  160.7555 O.3     1  UNL1       -0.3785
     37 H         140.0958  145.6129  160.2411 H       1  UNL1        0.2106
@<TRIPOS>BOND
     1    16    17    1
     2    17    18    1
     3    17    11    1
     4    11    12   ar
     5    12    13   ar
     6    13    14   ar
     7    14     7    1
     8     7     8   am
     9     8     9    2
    10     8     1    1
    11     1     2   ar
    12     2     3   ar
    13     3    19    1
    14    19    20    1
    15    20    21   ar
    16    21    22   ar
    17    22    23   ar
    18    23    26    1
    19    26    27    2
    20    26    28   am
    21    28    29    1
    22    29    30    1
    23    30    31    1
    24    23    24   ar
    25    24    25   ar
    26     3     4   ar
    27     4     5   ar
    28     5    32    1
    29    32    33    1
    30    33    34    1
    31    33    35    1
    32    35    36    1
    33     5     6   ar
    34    14    15   ar
    35    15    11   ar
    36     6     1   ar
    37    25    20   ar
    38    31    28    1
    39     7    10    1
    40    36    37    1
@<TRIPOS>MOLECULE
*****
 37 40 0 0 0
SMALL
GASTEIGER

@<TRIPOS>ATOM
      1 C         142.6794  139.9398  159.9372 C.ar    1  UNL1        0.0597
      2 C         143.3962  139.5953  161.2090 C.ar    1  UNL1        0.0422
      3 C         143.8756  140.6870  162.1191 C.ar    1  UNL1        0.1485
      4 C         143.6382  142.1232  161.7574 C.ar    1  UNL1        0.0743
      5 C         142.9213  142.4678  160.4857 C.ar    1  UNL1        0.1417
      6 C         142.4420  141.3761  159.5756 C.ar    1  UNL1        0.0416
      7 N         143.1601  138.1771  158.0901 N.am    1  UNL1       -0.2644
      8 C         142.2000  138.8481  159.0270 C.2     1  UNL1        0.2508
      9 O         140.7604  138.4275  159.0538 O.2     1  UNL1       -0.2698
     10 H         144.1050  138.4532  158.0725 H       1  UNL1        0.1566
     11 N         142.2510  134.8928  156.2319 N.ar    1  UNL1       -0.2502
     12 C         141.6350  135.9181  155.3266 C.ar    1  UNL1        0.0979
     13 C         141.9006  137.2732  155.9126 C.ar    1  UNL1        0.0564
     14 C         142.6807  137.0854  157.1799 C.ar    1  UNL1        0.1557
     15 N         142.8973  135.6143  157.3773 N.ar    1  UNL1       -0.1541
     16 C         143.1762  132.5291  156.7858 C.3     1  UNL1        0.0263
     17 C         142.2252  133.4071  156.0277 C.3     1  UNL1        0.1054
     18 C         141.2484  132.7992  155.0653 C.3     1  UNL1        0.0263
     19 O         144.5925  140.3424  163.3909 O.3     1  UNL1       -0.4534
     20 C         144.0010  140.7300  164.7138 C.ar    1  UNL1        0.1453
     21 C         144.0253  142.1635  165.1551 C.ar    1  UNL1        0.0376
     22 C         143.4339  142.5510  166.4780 C.ar    1  UNL1        0.0076
     23 C         142.8182  141.5051  167.3595 C.ar    1  UNL1        0.0538
     24 C         142.7939  140.0718  166.9182 C.ar    1  UNL1        0.0076
     25 C         143.3854  139.6842  165.5953 C.ar    1  UNL1        0.0376
     26 C         142.2268  141.8927  168.6824 C.2     1  UNL1        0.2490
     27 O         142.9469  142.8638  169.5703 O.2     1  UNL1       -0.2699
     28 N         140.9152  141.3091  169.1174 N.am    1  UNL1       -0.2760
     29 C         139.9352  140.3417  168.5225 C.3     1  UNL1        0.0955
     30 C         139.0603  140.4838  169.7327 C.3     1  UNL1        0.0430
     31 C         140.0403  141.4511  170.3276 C.3     1  UNL1        0.0955
     32 O         142.6839  143.9040  160.1240 O.3     1  UNL1       -0.4765
     33 C         141.5243  144.6457  160.7200 C.3     1  UNL1        0.1951
     34 C         140.4101  145.1283  159.8393 C.3     1  UNL1        0.0500
     35 C         141.4788  144.9048  162.1968 C.3     1  UNL1        0.1807
     36 O         140.8462  146.1606  162.7188 O.3     1  UNL1       -0.3785
     37 H         141.3682  146.9275  162.4355 H       1  UNL1        0.2106
@<TRIPOS>BOND
     1    16    17    1
     2    17    18    1
     3    17    11    1
     4    11    12   ar
     5    12    13   ar
     6    13    14   ar
     7    14     7    1
     8     7     8   am
     9     8     9    2
    10     8     1    1
    11     1     2   ar
    12     2     3   ar
    13     3    19    1
    14    19    20    1
    15    20    21   ar
    16    21    22   ar
    17    22    23   ar
    18    23    26    1
    19    26    27    2
    20    26    28   am
    21    28    29    1
    22    29    30    1
    23    30    31    1
    24    23    24   ar
    25    24    25   ar
    26     3     4   ar
    27     4     5   ar
    28     5    32    1
    29    32    33    1
    30    33    34    1
    31    33    35    1
    32    35    36    1
    33     5     6   ar
    34    14    15   ar
    35    15    11   ar
    36     6     1   ar
    37    25    20   ar
    38    31    28    1
    39     7    10    1
    40    36    37    1
