@<TRIPOS>MOLECULE
*****
 37 40 0 0 0
SMALL
GASTEIGER

@<TRIPOS>ATOM
      1 O         142.9640  140.9478  166.2339 O.3     1  UNL1       -0.4741
      2 C         142.6792  141.8627  165.0799 C.ar    1  UNL1        0.1513
      3 C         141.6178  141.5039  164.0825 C.ar    1  UNL1        0.0688
      4 C         141.3330  142.4189  162.9285 C.ar    1  UNL1        0.1620
      5 F         140.2716  142.0602  161.9311 F       1  UNL1       -0.2026
      6 C         142.1096  143.6926  162.7718 C.ar    1  UNL1        0.1535
      7 C         143.1710  144.0514  163.7692 C.ar    1  UNL1        0.0369
      8 C         143.4558  143.1365  164.9232 C.ar    1  UNL1        0.0930
      9 CL        144.5172  143.4953  165.9205 Cl      1  UNL1       -0.0790
     10 S         141.8248  144.6075  161.6178 S.O2    1  UNL1        0.0769
     11 O         142.9975  144.0375  160.8764 O.2     1  UNL1       -0.1498
     12 O         140.6520  145.1776  162.3592 O.2     1  UNL1       -0.1498
     13 N         141.5400  145.5225  160.4637 N.pl3   1  UNL1       -0.1984
     14 H         141.8059  146.4693  160.5089 H       1  UNL1        0.1753
     15 C         140.8500  144.9947  159.2408 C.ar    1  UNL1        0.1542
     16 C         140.0097  143.7543  159.1687 C.ar    1  UNL1        0.0725
     17 S         139.5196  143.6077  157.7586 S.2     1  UNL1       -0.0625
     18 C         140.0570  144.7576  156.9592 C.ar    1  UNL1        0.1360
     19 N         140.8793  145.6148  157.8752 N.ar    1  UNL1       -0.2203
     20 C         142.0599  139.7828  166.5083 C.3     1  UNL1        0.2110
     21 C         141.4909  140.0835  169.0254 C.3     1  UNL1        0.0620
     22 C         140.4763  140.1648  170.1272 C.3     1  UNL1        0.0208
     23 C         139.0160  140.0266  169.8136 C.3     1  UNL1        0.0271
     24 C         138.5703  139.8072  168.3983 C.2     1  UNL1       -0.0302
     25 C         139.5849  139.7260  167.2965 C.2     1  UNL1       -0.0218
     26 C         141.0452  139.8641  167.6101 C.3     1  UNL1        0.0801
     27 C         139.1392  139.5065  165.8811 C.ar    1  UNL1       -0.0040
     28 C         138.4179  140.5961  165.1445 C.ar    1  UNL1        0.0020
     29 C         137.9722  140.3766  163.7291 C.ar    1  UNL1        0.0296
     30 C         138.2479  139.0677  163.0504 C.ar    1  UNL1        0.1401
     31 F         137.8022  138.8482  161.6351 F       1  UNL1       -0.2042
     32 C         138.9692  137.9781  163.7871 C.ar    1  UNL1        0.0296
     33 C         139.4148  138.1976  165.2024 C.ar    1  UNL1        0.0020
     34 N         142.9513  140.2216  169.3390 N.3     1  UNL1       -0.2982
     35 H         143.1606  139.5434  170.0715 H       1  UNL1        0.1232
     36 C         142.7051  142.7958  169.5897 C.3     1  UNL1        0.0185
     37 C         143.4978  141.5400  169.8006 C.3     1  UNL1        0.0686
@<TRIPOS>BOND
     1    36    37    1
     2    37    34    1
     3    21    34    1
     4    21    22    1
     5    22    23    1
     6    23    24    1
     7    24    25    2
     8    25    27    1
     9    27    28   ar
    10    28    29   ar
    11    29    30   ar
    12    30    31    1
    13    30    32   ar
    14    32    33   ar
    15    25    26    1
    16    26    20    1
    17    20     1    1
    18     1     2    1
    19     2     3   ar
    20     3     4   ar
    21     4     5    1
    22     4     6   ar
    23     6    10    1
    24    10    11    2
    25    10    12    2
    26    10    13    1
    27    13    15    1
    28    15    16   ar
    29    16    17   ar
    30    17    18   ar
    31    18    19   ar
    32     6     7   ar
    33     7     8   ar
    34     8     9    1
    35    26    21    1
    36     8     2   ar
    37    33    27   ar
    38    19    15   ar
    39    34    35    1
    40    13    14    1
@<TRIPOS>MOLECULE
*****
 37 40 0 0 0
SMALL
GASTEIGER

@<TRIPOS>ATOM
      1 O         138.8752  141.5996  165.6165 O.3     1  UNL1       -0.4741
      2 C         139.4662  142.3839  164.4826 C.ar    1  UNL1        0.1513
      3 C         140.8022  143.0464  164.6450 C.ar    1  UNL1        0.0688
      4 C         141.3932  143.8307  163.5111 C.ar    1  UNL1        0.1620
      5 F         142.7291  144.4932  163.6735 F       1  UNL1       -0.2026
      6 C         140.6483  143.9523  162.2149 C.ar    1  UNL1        0.1535
      7 C         139.3124  143.2898  162.0524 C.ar    1  UNL1        0.0369
      8 C         138.7214  142.5056  163.1863 C.ar    1  UNL1        0.0930
      9 CL        137.3855  141.8430  163.0239 Cl      1  UNL1       -0.0790
     10 S         141.2393  144.7366  161.0810 S.O2    1  UNL1        0.0769
     11 O         142.1307  143.5781  160.7444 O.2     1  UNL1       -0.1498
     12 O         140.3480  145.8951  161.4177 O.2     1  UNL1       -0.1498
     13 N         141.8304  145.5208  159.9471 N.pl3   1  UNL1       -0.1984
     14 H         142.5838  146.1328  160.1119 H       1  UNL1        0.1753
     15 C         141.2737  145.3725  158.5622 C.ar    1  UNL1        0.1542
     16 C         141.8853  145.9127  157.3035 C.ar    1  UNL1        0.0725
     17 S         140.9972  145.5320  156.1562 S.2     1  UNL1       -0.0625
     18 C         139.8367  144.7566  156.7057 C.ar    1  UNL1        0.1360
     19 N         140.0075  144.6580  158.1928 N.ar    1  UNL1       -0.2203
     20 C         139.1079  140.1206  165.7069 C.3     1  UNL1        0.2110
     21 C         141.0657  138.7119  164.7411 C.3     1  UNL1        0.0620
     22 C         142.4627  138.1782  164.8570 C.3     1  UNL1        0.0208
     23 C         143.2990  138.5195  166.0545 C.3     1  UNL1        0.0271
     24 C         142.7383  139.3944  167.1362 C.2     1  UNL1       -0.0302
     25 C         141.3413  139.9281  167.0203 C.2     1  UNL1       -0.0218
     26 C         140.5050  139.5868  165.8228 C.3     1  UNL1        0.0801
     27 C         140.7805  140.8031  168.1021 C.ar    1  UNL1       -0.0040
     28 C         139.8437  140.2272  169.1222 C.ar    1  UNL1        0.0020
     29 C         139.2830  141.1022  170.2039 C.ar    1  UNL1        0.0296
     30 C         139.6590  142.5530  170.2654 C.ar    1  UNL1        0.1401
     31 F         139.0983  143.4280  171.3470 F       1  UNL1       -0.2042
     32 C         140.5958  143.1288  169.2451 C.ar    1  UNL1        0.0296
     33 C         141.1566  142.2539  168.1635 C.ar    1  UNL1        0.0020
     34 N         140.2294  138.3707  163.5436 N.3     1  UNL1       -0.2982
     35 H         140.4527  137.4074  163.2933 H       1  UNL1        0.1232
     36 C         141.4314  140.2151  162.1640 C.3     1  UNL1        0.0185
     37 C         140.3499  139.1832  162.2885 C.3     1  UNL1        0.0686
@<TRIPOS>BOND
     1    36    37    1
     2    37    34    1
     3    21    34    1
     4    21    22    1
     5    22    23    1
     6    23    24    1
     7    24    25    2
     8    25    27    1
     9    27    28   ar
    10    28    29   ar
    11    29    30   ar
    12    30    31    1
    13    30    32   ar
    14    32    33   ar
    15    25    26    1
    16    26    20    1
    17    20     1    1
    18     1     2    1
    19     2     3   ar
    20     3     4   ar
    21     4     5    1
    22     4     6   ar
    23     6    10    1
    24    10    11    2
    25    10    12    2
    26    10    13    1
    27    13    15    1
    28    15    16   ar
    29    16    17   ar
    30    17    18   ar
    31    18    19   ar
    32     6     7   ar
    33     7     8   ar
    34     8     9    1
    35    26    21    1
    36     8     2   ar
    37    33    27   ar
    38    19    15   ar
    39    34    35    1
    40    13    14    1
@<TRIPOS>MOLECULE
*****
 37 40 0 0 0
SMALL
GASTEIGER

@<TRIPOS>ATOM
      1 O         140.9890  139.6792  164.9523 O.3     1  UNL1       -0.4741
      2 C         141.3299  139.6075  163.4933 C.ar    1  UNL1        0.1513
      3 C         141.6957  140.8558  162.7464 C.ar    1  UNL1        0.0688
      4 C         142.0366  140.7840  161.2873 C.ar    1  UNL1        0.1620
      5 F         142.4025  142.0323  160.5403 F       1  UNL1       -0.2026
      6 C         142.0117  139.4640  160.5753 C.ar    1  UNL1        0.1535
      7 C         141.6458  138.2158  161.3223 C.ar    1  UNL1        0.0369
      8 C         141.3049  138.2875  162.7812 C.ar    1  UNL1        0.0930
      9 CL        140.9391  137.0392  163.5282 Cl      1  UNL1       -0.0790
     10 S         142.3525  139.3923  159.1164 S.O2    1  UNL1        0.0769
     11 O         140.9109  139.6173  158.7685 O.2     1  UNL1       -0.1498
     12 O         143.7942  139.1674  159.4642 O.2     1  UNL1       -0.1498
     13 N         142.6934  139.3206  157.6573 N.pl3   1  UNL1       -0.1984
     14 H         142.6710  140.1359  157.1059 H       1  UNL1        0.1753
     15 C         143.0683  138.0067  157.0384 C.ar    1  UNL1        0.1542
     16 C         142.5254  136.6630  157.4254 C.ar    1  UNL1        0.0725
     17 S         143.1735  135.6316  156.5500 S.2     1  UNL1       -0.0625
     18 C         144.1169  136.3379  155.6220 C.ar    1  UNL1        0.1360
     19 N         144.0519  137.8058  155.9238 N.ar    1  UNL1       -0.2203
     20 C         139.6271  140.1375  165.3827 C.3     1  UNL1        0.2110
     21 C         138.0220  141.6239  163.9812 C.3     1  UNL1        0.0620
     22 C         137.5265  142.9819  163.5809 C.3     1  UNL1        0.0208
     23 C         138.1405  144.2115  164.1817 C.3     1  UNL1        0.0271
     24 C         139.2501  144.0832  165.1828 C.2     1  UNL1       -0.0302
     25 C         139.7456  142.7252  165.5831 C.2     1  UNL1       -0.0218
     26 C         139.1316  141.4956  164.9823 C.3     1  UNL1        0.0801
     27 C         140.8553  142.5967  166.5843 C.ar    1  UNL1       -0.0040
     28 C         142.2743  142.4609  166.1178 C.ar    1  UNL1        0.0020
     29 C         143.3840  142.3325  167.1190 C.ar    1  UNL1        0.0296
     30 C         143.0744  142.3398  168.5867 C.ar    1  UNL1        0.1401
     31 F         144.1840  142.2114  169.5879 F       1  UNL1       -0.2042
     32 C         141.6552  142.4756  169.0532 C.ar    1  UNL1        0.0296
     33 C         140.5457  142.6041  168.0520 C.ar    1  UNL1        0.0020
     34 N         137.4079  140.3943  163.3803 N.3     1  UNL1       -0.2982
     35 H         137.5274  139.6433  164.0601 H       1  UNL1        0.1232
     36 C         137.7843  138.4126  161.7430 C.3     1  UNL1        0.0185
     37 C         137.9075  139.8722  162.0659 C.3     1  UNL1        0.0686
@<TRIPOS>BOND
     1    36    37    1
     2    37    34    1
     3    21    34    1
     4    21    22    1
     5    22    23    1
     6    23    24    1
     7    24    25    2
     8    25    27    1
     9    27    28   ar
    10    28    29   ar
    11    29    30   ar
    12    30    31    1
    13    30    32   ar
    14    32    33   ar
    15    25    26    1
    16    26    20    1
    17    20     1    1
    18     1     2    1
    19     2     3   ar
    20     3     4   ar
    21     4     5    1
    22     4     6   ar
    23     6    10    1
    24    10    11    2
    25    10    12    2
    26    10    13    1
    27    13    15    1
    28    15    16   ar
    29    16    17   ar
    30    17    18   ar
    31    18    19   ar
    32     6     7   ar
    33     7     8   ar
    34     8     9    1
    35    26    21    1
    36     8     2   ar
    37    33    27   ar
    38    19    15   ar
    39    34    35    1
    40    13    14    1
@<TRIPOS>MOLECULE
*****
 37 40 0 0 0
SMALL
GASTEIGER

@<TRIPOS>ATOM
      1 O         142.2250  141.7392  165.9996 O.3     1  UNL1       -0.4741
      2 C         142.3831  140.8243  164.8215 C.ar    1  UNL1        0.1513
      3 C         141.9336  141.2686  163.4612 C.ar    1  UNL1        0.0688
      4 C         142.0918  140.3536  162.2831 C.ar    1  UNL1        0.1620
      5 F         141.6423  140.7979  160.9227 F       1  UNL1       -0.2026
      6 C         142.6994  138.9944  162.4653 C.ar    1  UNL1        0.1535
      7 C         143.1489  138.5501  163.8257 C.ar    1  UNL1        0.0369
      8 C         142.9908  139.4650  165.0038 C.ar    1  UNL1        0.0930
      9 CL        143.4403  139.0206  166.3641 Cl      1  UNL1       -0.0790
     10 S         142.8575  138.0795  161.2873 S.O2    1  UNL1        0.0769
     11 O         141.5092  137.4853  161.5677 O.2     1  UNL1       -0.1498
     12 O         144.2059  138.6737  161.0068 O.2     1  UNL1       -0.1498
     13 N         143.0156  137.1645  160.1091 N.pl3   1  UNL1       -0.1984
     14 H         143.3835  136.2599  160.2343 H       1  UNL1        0.1753
     15 C         142.6133  137.6278  158.7404 C.ar    1  UNL1        0.1542
     16 C         142.8035  136.8682  157.4611 C.ar    1  UNL1        0.0725
     17 S         142.2578  137.7030  156.3407 S.2     1  UNL1       -0.0625
     18 C         141.7303  138.9787  156.9276 C.ar    1  UNL1        0.1360
     19 N         141.9499  138.9323  158.4107 N.ar    1  UNL1       -0.2203
     20 C         140.8566  142.1756  166.4319 C.3     1  UNL1        0.2110
     21 C         140.4124  141.9857  168.9847 C.3     1  UNL1        0.0620
     22 C         139.7379  141.3052  170.1388 C.3     1  UNL1        0.0208
     23 C         138.8330  140.1341  169.8942 C.3     1  UNL1        0.0271
     24 C         138.6027  139.6435  168.4956 C.2     1  UNL1       -0.0302
     25 C         139.2772  140.3240  167.3415 C.2     1  UNL1       -0.0218
     26 C         140.1820  141.4951  167.5861 C.3     1  UNL1        0.0801
     27 C         139.0469  139.8334  165.9428 C.ar    1  UNL1       -0.0040
     28 C         138.2847  140.6801  164.9670 C.ar    1  UNL1        0.0020
     29 C         138.0543  140.1895  163.5683 C.ar    1  UNL1        0.0296
     30 C         138.5863  138.8522  163.1455 C.ar    1  UNL1        0.1401
     31 F         138.3560  138.3616  161.7468 F       1  UNL1       -0.2042
     32 C         139.3485  138.0056  164.1213 C.ar    1  UNL1        0.0296
     33 C         139.5788  138.4962  165.5199 C.ar    1  UNL1        0.0020
     34 N         141.3172  143.1568  169.2293 N.3     1  UNL1       -0.2982
     35 H         141.6776  143.4454  168.3198 H       1  UNL1        0.1232
     36 C         143.7127  142.2567  169.6781 C.3     1  UNL1        0.0185
     37 C         142.5015  143.0125  170.1384 C.3     1  UNL1        0.0686
@<TRIPOS>BOND
     1    36    37    1
     2    37    34    1
     3    21    34    1
     4    21    22    1
     5    22    23    1
     6    23    24    1
     7    24    25    2
     8    25    27    1
     9    27    28   ar
    10    28    29   ar
    11    29    30   ar
    12    30    31    1
    13    30    32   ar
    14    32    33   ar
    15    25    26    1
    16    26    20    1
    17    20     1    1
    18     1     2    1
    19     2     3   ar
    20     3     4   ar
    21     4     5    1
    22     4     6   ar
    23     6    10    1
    24    10    11    2
    25    10    12    2
    26    10    13    1
    27    13    15    1
    28    15    16   ar
    29    16    17   ar
    30    17    18   ar
    31    18    19   ar
    32     6     7   ar
    33     7     8   ar
    34     8     9    1
    35    26    21    1
    36     8     2   ar
    37    33    27   ar
    38    19    15   ar
    39    34    35    1
    40    13    14    1
@<TRIPOS>MOLECULE
*****
 37 40 0 0 0
SMALL
GASTEIGER

@<TRIPOS>ATOM
      1 O         141.4941  142.5554  166.7857 O.3     1  UNL1       -0.4741
      2 C         141.1329  143.1877  165.4743 C.ar    1  UNL1        0.1513
      3 C         139.7110  143.5749  165.1947 C.ar    1  UNL1        0.0688
      4 C         139.3499  144.2073  163.8833 C.ar    1  UNL1        0.1620
      5 F         137.9279  144.5945  163.6037 F       1  UNL1       -0.2026
      6 C         140.4107  144.4524  162.8515 C.ar    1  UNL1        0.1535
      7 C         141.8326  144.0652  163.1311 C.ar    1  UNL1        0.0369
      8 C         142.1937  143.4329  164.4424 C.ar    1  UNL1        0.0930
      9 CL        143.6157  143.0457  164.7220 Cl      1  UNL1       -0.0790
     10 S         140.0495  145.0847  161.5401 S.O2    1  UNL1        0.0769
     11 O         140.1956  146.4447  162.1557 O.2     1  UNL1       -0.1498
     12 O         139.9034  143.7247  160.9246 O.2     1  UNL1       -0.1498
     13 N         139.6884  145.7171  160.2287 N.pl3   1  UNL1       -0.1984
     14 H         138.9226  146.3333  160.1737 H       1  UNL1        0.1753
     15 C         140.4940  145.4105  159.0012 C.ar    1  UNL1        0.1542
     16 C         139.9516  144.9308  157.6876 C.ar    1  UNL1        0.0725
     17 S         141.1059  144.7536  156.7462 S.2     1  UNL1       -0.0625
     18 C         142.3618  145.1239  157.4780 C.ar    1  UNL1        0.1360
     19 N         141.9837  145.5299  158.8717 N.ar    1  UNL1       -0.2203
     20 C         141.6735  141.0690  166.8774 C.3     1  UNL1        0.2110
     21 C         139.4504  140.0332  167.7348 C.3     1  UNL1        0.0620
     22 C         138.2771  139.1219  167.5279 C.3     1  UNL1        0.0208
     23 C         138.1534  138.3352  166.2568 C.3     1  UNL1        0.0271
     24 C         139.2031  138.4597  165.1926 C.2     1  UNL1       -0.0302
     25 C         140.3764  139.3710  165.3994 C.2     1  UNL1       -0.0218
     26 C         140.5001  140.1577  166.6706 C.3     1  UNL1        0.0801
     27 C         141.4262  139.4956  164.3352 C.ar    1  UNL1       -0.0040
     28 C         141.1492  140.2985  163.0989 C.ar    1  UNL1        0.0020
     29 C         142.1989  140.4231  162.0346 C.ar    1  UNL1        0.0296
     30 C         143.5256  139.7447  162.2067 C.ar    1  UNL1        0.1401
     31 F         144.5753  139.8692  161.1425 F       1  UNL1       -0.2042
     32 C         143.8026  138.9417  163.4431 C.ar    1  UNL1        0.0296
     33 C         142.7529  138.8172  164.5073 C.ar    1  UNL1        0.0020
     34 N         139.5741  140.8199  169.0059 N.3     1  UNL1       -0.2982
     35 H         140.1671  141.6235  168.7984 H       1  UNL1        0.1232
     36 C         141.1445  140.9034  171.0740 C.3     1  UNL1        0.0185
     37 C         140.1369  140.1729  170.2367 C.3     1  UNL1        0.0686
@<TRIPOS>BOND
     1    36    37    1
     2    37    34    1
     3    21    34    1
     4    21    22    1
     5    22    23    1
     6    23    24    1
     7    24    25    2
     8    25    27    1
     9    27    28   ar
    10    28    29   ar
    11    29    30   ar
    12    30    31    1
    13    30    32   ar
    14    32    33   ar
    15    25    26    1
    16    26    20    1
    17    20     1    1
    18     1     2    1
    19     2     3   ar
    20     3     4   ar
    21     4     5    1
    22     4     6   ar
    23     6    10    1
    24    10    11    2
    25    10    12    2
    26    10    13    1
    27    13    15    1
    28    15    16   ar
    29    16    17   ar
    30    17    18   ar
    31    18    19   ar
    32     6     7   ar
    33     7     8   ar
    34     8     9    1
    35    26    21    1
    36     8     2   ar
    37    33    27   ar
    38    19    15   ar
    39    34    35    1
    40    13    14    1
@<TRIPOS>MOLECULE
*****
 37 40 0 0 0
SMALL
GASTEIGER

@<TRIPOS>ATOM
      1 O         142.9814  138.9892  164.0302 O.3     1  UNL1       -0.4741
      2 C         142.6943  140.2707  163.3055 C.ar    1  UNL1        0.1513
      3 C         141.8654  141.3343  163.9624 C.ar    1  UNL1        0.0688
      4 C         141.5783  142.6159  163.2377 C.ar    1  UNL1        0.1620
      5 F         140.7493  143.6795  163.8947 F       1  UNL1       -0.2026
      6 C         142.1202  142.8338  161.8561 C.ar    1  UNL1        0.1535
      7 C         142.9491  141.7702  161.1992 C.ar    1  UNL1        0.0369
      8 C         143.2362  140.4887  161.9238 C.ar    1  UNL1        0.0930
      9 CL        144.0652  139.4251  161.2669 Cl      1  UNL1       -0.0790
     10 S         141.8331  144.1154  161.1315 S.O2    1  UNL1        0.0769
     11 O         143.1333  144.6824  161.6191 O.2     1  UNL1       -0.1498
     12 O         140.5328  143.5484  160.6438 O.2     1  UNL1       -0.1498
     13 N         141.5460  145.3970  160.4068 N.pl3   1  UNL1       -0.1984
     14 H         141.3979  146.2272  160.9148 H       1  UNL1        0.1753
     15 C         141.4846  145.4137  158.9082 C.ar    1  UNL1        0.1542
     16 C         140.3184  145.8628  158.0785 C.ar    1  UNL1        0.0725
     17 S         140.6916  145.7108  156.6336 S.2     1  UNL1       -0.0625
     18 C         142.0884  145.1677  156.5703 C.ar    1  UNL1        0.1360
     19 N         142.5785  144.9841  157.9760 N.ar    1  UNL1       -0.2203
     20 C         142.5563  138.8241  165.4592 C.3     1  UNL1        0.2110
     21 C         140.1122  138.0781  164.9901 C.3     1  UNL1        0.0620
     22 C         138.6555  138.1025  165.3468 C.3     1  UNL1        0.0208
     23 C         138.1860  138.8972  166.5292 C.3     1  UNL1        0.0271
     24 C         139.1733  139.6675  167.3550 C.2     1  UNL1       -0.0302
     25 C         140.6301  139.6432  166.9982 C.2     1  UNL1       -0.0218
     26 C         141.0995  138.8485  165.8158 C.3     1  UNL1        0.0801
     27 C         141.6174  140.4135  167.8240 C.ar    1  UNL1       -0.0040
     28 C         142.1269  141.7389  167.3407 C.ar    1  UNL1        0.0020
     29 C         143.1143  142.5093  168.1664 C.ar    1  UNL1        0.0296
     30 C         143.5921  141.9541  169.4754 C.ar    1  UNL1        0.1401
     31 F         144.5795  142.7244  170.3011 F       1  UNL1       -0.2042
     32 C         143.0826  140.6286  169.9587 C.ar    1  UNL1        0.0296
     33 C         142.0953  139.8583  169.1330 C.ar    1  UNL1        0.0020
     34 N         140.5817  137.2834  163.8077 N.3     1  UNL1       -0.2982
     35 H         141.5971  137.2196  163.8803 H       1  UNL1        0.1232
     36 C         138.8534  137.9813  161.9978 C.3     1  UNL1        0.0185
     37 C         140.2758  137.7558  162.4174 C.3     1  UNL1        0.0686
@<TRIPOS>BOND
     1    36    37    1
     2    37    34    1
     3    21    34    1
     4    21    22    1
     5    22    23    1
     6    23    24    1
     7    24    25    2
     8    25    27    1
     9    27    28   ar
    10    28    29   ar
    11    29    30   ar
    12    30    31    1
    13    30    32   ar
    14    32    33   ar
    15    25    26    1
    16    26    20    1
    17    20     1    1
    18     1     2    1
    19     2     3   ar
    20     3     4   ar
    21     4     5    1
    22     4     6   ar
    23     6    10    1
    24    10    11    2
    25    10    12    2
    26    10    13    1
    27    13    15    1
    28    15    16   ar
    29    16    17   ar
    30    17    18   ar
    31    18    19   ar
    32     6     7   ar
    33     7     8   ar
    34     8     9    1
    35    26    21    1
    36     8     2   ar
    37    33    27   ar
    38    19    15   ar
    39    34    35    1
    40    13    14    1
@<TRIPOS>MOLECULE
*****
 37 40 0 0 0
SMALL
GASTEIGER

@<TRIPOS>ATOM
      1 O         143.2786  143.2628  163.5145 O.3     1  UNL1       -0.4741
      2 C         143.2409  142.1315  162.5303 C.ar    1  UNL1        0.1513
      3 C         142.1621  142.0785  161.4894 C.ar    1  UNL1        0.0688
      4 C         142.1245  140.9472  160.5051 C.ar    1  UNL1        0.1620
      5 F         141.0457  140.8942  159.4643 F       1  UNL1       -0.2026
      6 C         143.1655  139.8688  160.5618 C.ar    1  UNL1        0.1535
      7 C         144.2443  139.9217  161.6027 C.ar    1  UNL1        0.0369
      8 C         144.2820  141.0530  162.5869 C.ar    1  UNL1        0.0930
      9 CL        145.3608  141.1060  163.6277 Cl      1  UNL1       -0.0790
     10 S         143.1278  138.7375  159.5776 S.O2    1  UNL1        0.0769
     11 O         143.8147  139.5996  158.5603 O.2     1  UNL1       -0.1498
     12 O         142.4410  137.8754  160.5949 O.2     1  UNL1       -0.1498
     13 N         143.0901  137.6062  158.5933 N.pl3   1  UNL1       -0.1984
     14 H         143.8212  136.9472  158.5726 H       1  UNL1        0.1753
     15 C         141.9385  137.4790  157.6406 C.ar    1  UNL1        0.1542
     16 C         140.6550  138.2529  157.7006 C.ar    1  UNL1        0.0725
     17 S         139.7914  137.8078  156.5578 S.2     1  UNL1       -0.0625
     18 C         140.5412  136.7588  155.7914 C.ar    1  UNL1        0.1360
     19 N         141.8682  136.5555  156.4606 N.ar    1  UNL1       -0.2203
     20 C         142.5304  143.1550  164.8101 C.3     1  UNL1        0.2110
     21 C         140.1038  143.9673  164.3606 C.3     1  UNL1        0.0620
     22 C         138.6268  143.7061  164.3542 C.3     1  UNL1        0.0208
     23 C         138.0992  142.3715  164.7907 C.3     1  UNL1        0.0271
     24 C         139.0486  141.2981  165.2337 C.2     1  UNL1       -0.0302
     25 C         140.5257  141.5593  165.2402 C.2     1  UNL1       -0.0218
     26 C         141.0533  142.8939  164.8036 C.3     1  UNL1        0.0801
     27 C         141.4752  140.4859  165.6832 C.ar    1  UNL1       -0.0040
     28 C         141.9781  139.4751  164.6956 C.ar    1  UNL1        0.0020
     29 C         142.9277  138.4017  165.1386 C.ar    1  UNL1        0.0296
     30 C         143.3743  138.3391  166.5692 C.ar    1  UNL1        0.1401
     31 F         144.3238  137.2657  167.0123 F       1  UNL1       -0.2042
     32 C         142.8713  139.3499  167.5568 C.ar    1  UNL1        0.0296
     33 C         141.9218  140.4233  167.1138 C.ar    1  UNL1        0.0020
     34 N         140.6314  145.3018  163.9240 N.3     1  UNL1       -0.2982
     35 H         139.9967  146.0065  164.2995 H       1  UNL1        0.1232
     36 C         139.6835  146.2594  161.7027 C.3     1  UNL1        0.0185
     37 C         140.7964  145.6019  162.4637 C.3     1  UNL1        0.0686
@<TRIPOS>BOND
     1    36    37    1
     2    37    34    1
     3    21    34    1
     4    21    22    1
     5    22    23    1
     6    23    24    1
     7    24    25    2
     8    25    27    1
     9    27    28   ar
    10    28    29   ar
    11    29    30   ar
    12    30    31    1
    13    30    32   ar
    14    32    33   ar
    15    25    26    1
    16    26    20    1
    17    20     1    1
    18     1     2    1
    19     2     3   ar
    20     3     4   ar
    21     4     5    1
    22     4     6   ar
    23     6    10    1
    24    10    11    2
    25    10    12    2
    26    10    13    1
    27    13    15    1
    28    15    16   ar
    29    16    17   ar
    30    17    18   ar
    31    18    19   ar
    32     6     7   ar
    33     7     8   ar
    34     8     9    1
    35    26    21    1
    36     8     2   ar
    37    33    27   ar
    38    19    15   ar
    39    34    35    1
    40    13    14    1
@<TRIPOS>MOLECULE
*****
 37 40 0 0 0
SMALL
GASTEIGER

@<TRIPOS>ATOM
      1 O         139.2155  142.5779  165.8654 O.3     1  UNL1       -0.4741
      2 C         139.6839  143.1908  164.5789 C.ar    1  UNL1        0.1513
      3 C         140.8201  144.1700  164.5846 C.ar    1  UNL1        0.0688
      4 C         141.2884  144.7828  163.2980 C.ar    1  UNL1        0.1620
      5 F         142.4247  145.7621  163.3037 F       1  UNL1       -0.2026
      6 C         140.6205  144.4164  162.0059 C.ar    1  UNL1        0.1535
      7 C         139.4843  143.4372  162.0002 C.ar    1  UNL1        0.0369
      8 C         139.0159  142.8244  163.2867 C.ar    1  UNL1        0.0930
      9 CL        137.8797  141.8451  163.2810 Cl      1  UNL1       -0.0790
     10 S         141.0889  145.0293  160.7194 S.O2    1  UNL1        0.0769
     11 O         142.3181  144.1705  160.7578 O.2     1  UNL1       -0.1498
     12 O         139.8597  145.8880  160.6810 O.2     1  UNL1       -0.1498
     13 N         141.5573  145.6421  159.4329 N.pl3   1  UNL1       -0.1984
     14 H         142.3126  146.2736  159.4347 H       1  UNL1        0.1753
     15 C         140.8748  145.2929  158.1436 C.ar    1  UNL1        0.1542
     16 C         140.4583  146.2608  157.0761 C.ar    1  UNL1        0.0725
     17 S         139.8151  145.4805  155.9682 S.2     1  UNL1       -0.0625
     18 C         139.8341  144.0303  156.3509 C.ar    1  UNL1        0.1360
     19 N         140.4891  143.9143  157.6955 N.ar    1  UNL1       -0.2203
     20 C         139.2797  141.0913  166.0551 C.3     1  UNL1        0.2110
     21 C         141.1434  140.8501  167.8491 C.3     1  UNL1        0.0620
     22 C         142.4132  140.2089  168.3249 C.3     1  UNL1        0.0208
     23 C         143.0891  139.1678  167.4828 C.3     1  UNL1        0.0271
     24 C         142.4952  138.7679  166.1647 C.2     1  UNL1       -0.0302
     25 C         141.2254  139.4090  165.6888 C.2     1  UNL1       -0.0218
     26 C         140.5496  140.4502  166.5310 C.3     1  UNL1        0.0801
     27 C         140.6315  139.0091  164.3707 C.ar    1  UNL1       -0.0040
     28 C         139.5939  137.9275  164.3129 C.ar    1  UNL1        0.0020
     29 C         138.9999  137.5276  162.9948 C.ar    1  UNL1        0.0296
     30 C         139.4437  138.2094  161.7345 C.ar    1  UNL1        0.1401
     31 F         138.8498  137.8095  160.4164 F       1  UNL1       -0.2042
     32 C         140.4814  139.2910  161.7923 C.ar    1  UNL1        0.0296
     33 C         141.0753  139.6909  163.1104 C.ar    1  UNL1        0.0020
     34 N         140.4675  141.8912  168.6912 N.3     1  UNL1       -0.2982
     35 H         141.1934  142.5393  168.9970 H       1  UNL1        0.1232
     36 C         138.8720  140.2377  169.9038 C.3     1  UNL1        0.0185
     37 C         139.7053  141.4849  169.9176 C.3     1  UNL1        0.0686
@<TRIPOS>BOND
     1    36    37    1
     2    37    34    1
     3    21    34    1
     4    21    22    1
     5    22    23    1
     6    23    24    1
     7    24    25    2
     8    25    27    1
     9    27    28   ar
    10    28    29   ar
    11    29    30   ar
    12    30    31    1
    13    30    32   ar
    14    32    33   ar
    15    25    26    1
    16    26    20    1
    17    20     1    1
    18     1     2    1
    19     2     3   ar
    20     3     4   ar
    21     4     5    1
    22     4     6   ar
    23     6    10    1
    24    10    11    2
    25    10    12    2
    26    10    13    1
    27    13    15    1
    28    15    16   ar
    29    16    17   ar
    30    17    18   ar
    31    18    19   ar
    32     6     7   ar
    33     7     8   ar
    34     8     9    1
    35    26    21    1
    36     8     2   ar
    37    33    27   ar
    38    19    15   ar
    39    34    35    1
    40    13    14    1
@<TRIPOS>MOLECULE
*****
 37 40 0 0 0
SMALL
GASTEIGER

@<TRIPOS>ATOM
      1 O         141.1546  142.7786  165.1872 O.3     1  UNL1       -0.4741
      2 C         140.9542  143.2458  163.7760 C.ar    1  UNL1        0.1513
      3 C         141.7565  142.6382  162.6637 C.ar    1  UNL1        0.0688
      4 C         141.5561  143.1054  161.2524 C.ar    1  UNL1        0.1620
      5 F         142.3584  142.4978  160.1402 F       1  UNL1       -0.2026
      6 C         140.5533  144.1801  160.9535 C.ar    1  UNL1        0.1535
      7 C         139.7510  144.7877  162.0657 C.ar    1  UNL1        0.0369
      8 C         139.9514  144.3206  163.4769 C.ar    1  UNL1        0.0930
      9 CL        139.1491  144.9282  164.5892 Cl      1  UNL1       -0.0790
     10 S         140.3529  144.6472  159.5422 S.O2    1  UNL1        0.0769
     11 O         139.1639  143.7422  159.4115 O.2     1  UNL1       -0.1498
     12 O         141.5420  145.5522  159.6729 O.2     1  UNL1       -0.1498
     13 N         140.1524  145.1143  158.1309 N.pl3   1  UNL1       -0.1984
     14 H         139.3718  145.6688  157.9021 H       1  UNL1        0.1753
     15 C         141.1415  144.7367  157.0683 C.ar    1  UNL1        0.1542
     16 C         141.8299  143.4106  156.9358 C.ar    1  UNL1        0.0725
     17 S         142.7296  143.4731  155.7372 S.2     1  UNL1       -0.0625
     18 C         142.5973  144.8378  155.1289 C.ar    1  UNL1        0.1360
     19 N         141.6157  145.6188  155.9516 N.ar    1  UNL1       -0.2203
     20 C         141.3549  141.3198  165.4730 C.3     1  UNL1        0.2110
     21 C         139.3507  139.6958  165.1633 C.3     1  UNL1        0.0620
     22 C         138.2324  138.8860  165.7493 C.3     1  UNL1        0.0208
     23 C         137.9999  138.8903  167.2312 C.3     1  UNL1        0.0271
     24 C         138.8857  139.7044  168.1270 C.2     1  UNL1       -0.0302
     25 C         140.0041  140.5142  167.5409 C.2     1  UNL1       -0.0218
     26 C         140.2365  140.5099  166.0591 C.3     1  UNL1        0.0801
     27 C         140.8900  141.3283  168.4368 C.ar    1  UNL1       -0.0040
     28 C         142.2468  140.8147  168.8177 C.ar    1  UNL1        0.0020
     29 C         143.1327  141.6288  169.7135 C.ar    1  UNL1        0.0296
     30 C         142.6617  142.9566  170.2283 C.ar    1  UNL1        0.1401
     31 F         143.5475  143.7708  171.1241 F       1  UNL1       -0.2042
     32 C         141.3048  143.4703  169.8474 C.ar    1  UNL1        0.0296
     33 C         140.4190  142.6562  168.9516 C.ar    1  UNL1        0.0020
     34 N         139.5832  139.6916  163.6814 N.3     1  UNL1       -0.2982
     35 H         140.4840  140.1433  163.5234 H       1  UNL1        0.1232
     36 C         137.6906  141.4284  163.2922 C.3     1  UNL1        0.0185
     37 C         138.5987  140.3568  162.7659 C.3     1  UNL1        0.0686
@<TRIPOS>BOND
     1    36    37    1
     2    37    34    1
     3    21    34    1
     4    21    22    1
     5    22    23    1
     6    23    24    1
     7    24    25    2
     8    25    27    1
     9    27    28   ar
    10    28    29   ar
    11    29    30   ar
    12    30    31    1
    13    30    32   ar
    14    32    33   ar
    15    25    26    1
    16    26    20    1
    17    20     1    1
    18     1     2    1
    19     2     3   ar
    20     3     4   ar
    21     4     5    1
    22     4     6   ar
    23     6    10    1
    24    10    11    2
    25    10    12    2
    26    10    13    1
    27    13    15    1
    28    15    16   ar
    29    16    17   ar
    30    17    18   ar
    31    18    19   ar
    32     6     7   ar
    33     7     8   ar
    34     8     9    1
    35    26    21    1
    36     8     2   ar
    37    33    27   ar
    38    19    15   ar
    39    34    35    1
    40    13    14    1
