@<TRIPOS>MOLECULE
*****
 33 37 0 0 0
SMALL
GASTEIGER

@<TRIPOS>ATOM
      1 C         144.3398  141.0058  158.3233 C.ar    1  UNL1        0.1317
      2 C         143.9049  142.1641  159.1714 C.ar    1  UNL1        0.0346
      3 C         143.0543  141.9280  160.3841 C.ar    1  UNL1        0.0121
      4 C         142.6385  140.5337  160.7487 C.ar    1  UNL1        0.1076
      5 C         143.0734  139.3754  159.9006 C.ar    1  UNL1        0.1080
      6 N         143.9240  139.6115  158.6879 N.ar    1  UNL1       -0.2289
      7 C         148.5820  142.6062  153.1893 C.3     1  UNL1        0.0375
      8 C         147.8195  141.5480  152.4484 C.3     1  UNL1        0.1423
      9 O         146.7748  140.9965  153.3730 O.3     1  UNL1       -0.3584
     10 C         146.8917  141.7139  154.6851 C.3     1  UNL1        0.0961
     11 C         145.8060  140.6795  154.6499 C.3     1  UNL1        0.0487
     12 C         144.9554  140.4434  155.8626 C.3     1  UNL1        0.0946
     13 N         145.1905  141.2419  157.1105 N.pl3   1  UNL1       -0.2931
     14 C         146.2761  142.2763  157.1457 C.3     1  UNL1        0.0946
     15 C         147.1267  142.5123  155.9330 C.3     1  UNL1        0.0487
     16 C         148.0086  142.7088  154.5716 C.3     1  UNL1        0.0302
     17 C         149.7183  143.4192  152.6436 C.3     1  UNL1        0.0443
     18 O         151.5103  142.1844  154.0627 O.co2   1  UNL1       -0.5492
     19 C         151.0464  143.4147  153.3409 C.2     1  UNL1        0.0504
     20 O         151.9105  144.6405  153.3164 O.co2   1  UNL1       -0.5492
     21 C         141.7878  140.2976  161.9614 C.2     1  UNL1        0.3767
     22 N         141.0701  139.0249  162.3007 N.2     1  UNL1       -0.0308
     23 C         140.3442  139.2334  163.5967 C.2     1  UNL1        0.2320
     24 C         139.4729  138.3282  164.4160 C.2     1  UNL1        0.0537
     25 C         138.8708  138.8245  165.6972 C.2     1  UNL1        0.0714
     26 C         139.1401  140.2261  166.1589 C.2     1  UNL1       -0.0133
     27 C         140.0113  141.1313  165.3395 C.3     1  UNL1        0.1037
     28 C         140.6134  140.6350  164.0584 C.2     1  UNL1        0.2178
     29 N         141.5056  141.2927  163.0478 N.2     1  UNL1       -0.0347
     30 C         137.9996  137.9193  166.5165 C.3     1  UNL1        0.4184
     31 F         137.1283  137.0140  167.3359 F       1  UNL1       -0.1659
     32 F         138.3447  136.7711  165.6151 F       1  UNL1       -0.1659
     33 F         137.6544  139.0674  167.4180 F       1  UNL1       -0.1659
@<TRIPOS>UNITY_ATOM_ATTR
18 1
charge -1
@<TRIPOS>BOND
     1    18    19   ar
     2    19    20   ar
     3    19    17    1
     4     7    17    1
     5     7     8    1
     6     8     9    1
     7     9    10    1
     8    10    11    1
     9    11    12    1
    10    12    13    1
    11    13     1    1
    12     1     2   ar
    13     2     3   ar
    14     3     4   ar
    15     4    21    1
    16    21    22    2
    17    22    23    1
    18    23    24    2
    19    24    25    1
    20    25    30    1
    21    30    31    1
    22    30    32    1
    23    30    33    1
    24    25    26    2
    25    26    27    1
    26    27    28    1
    27    28    29    2
    28     4     5   ar
    29     5     6   ar
    30    13    14    1
    31    14    15    1
    32    10    16    1
    33    16     7    1
    34    15    10    1
    35     6     1   ar
    36    29    21    1
    37    28    23    1
@<TRIPOS>MOLECULE
*****
 33 37 0 0 0
SMALL
GASTEIGER

@<TRIPOS>ATOM
      1 C         139.8765  144.8455  158.1163 C.ar    1  UNL1        0.1317
      2 C         139.4749  143.4029  158.0286 C.ar    1  UNL1        0.0346
      3 C         139.3186  142.5904  159.2798 C.ar    1  UNL1        0.0121
      4 C         139.5640  143.2206  160.6188 C.ar    1  UNL1        0.1076
      5 C         139.9656  144.6632  160.7065 C.ar    1  UNL1        0.1080
      6 N         140.1219  145.4756  159.4553 N.ar    1  UNL1       -0.2289
      7 C         140.1280  149.0558  152.7195 C.3     1  UNL1        0.0375
      8 C         141.0440  148.0105  152.1552 C.3     1  UNL1        0.1423
      9 O         141.1784  146.9148  153.1708 O.3     1  UNL1       -0.3584
     10 C         140.3455  147.2828  154.3628 C.3     1  UNL1        0.0961
     11 C         141.0606  145.9714  154.4997 C.3     1  UNL1        0.0487
     12 C         140.9043  145.1590  155.7508 C.3     1  UNL1        0.0946
     13 N         140.0328  145.6580  156.8651 N.pl3   1  UNL1       -0.2931
     14 C         139.3177  146.9694  156.7282 C.3     1  UNL1        0.0946
     15 C         139.4740  147.7818  155.4771 C.3     1  UNL1        0.0487
     16 C         139.6963  148.6061  154.0838 C.3     1  UNL1        0.0302
     17 C         139.7160  150.3274  152.0390 C.3     1  UNL1        0.0443
     18 O         138.4131  152.4004  152.9076 O.co2   1  UNL1       -0.5492
     19 C         139.6868  151.6145  152.8087 C.2     1  UNL1        0.0504
     20 O         140.9314  152.1157  153.4794 O.co2   1  UNL1       -0.5492
     21 C         139.4077  142.4081  161.8699 C.2     1  UNL1        0.3767
     22 N         138.7421  141.0679  161.9735 N.2     1  UNL1       -0.0308
     23 C         138.8126  140.6247  163.4048 C.2     1  UNL1        0.2320
     24 C         138.3227  139.3880  164.0979 C.2     1  UNL1        0.0537
     25 C         138.5419  139.2176  165.5720 C.2     1  UNL1        0.0714
     26 C         139.2511  140.2839  166.3530 C.2     1  UNL1       -0.0133
     27 C         139.7410  141.5207  165.6599 C.3     1  UNL1        0.1037
     28 C         139.5218  141.6911  164.1859 C.2     1  UNL1        0.2178
     29 N         139.8896  142.7933  163.2372 N.2     1  UNL1       -0.0347
     30 C         138.0520  137.9808  166.2651 C.3     1  UNL1        0.4184
     31 F         137.5620  136.7440  166.9582 F       1  UNL1       -0.1659
     32 F         138.7956  137.1323  165.2766 F       1  UNL1       -0.1659
     33 F         137.3084  138.8293  167.2536 F       1  UNL1       -0.1659
@<TRIPOS>UNITY_ATOM_ATTR
18 1
charge -1
@<TRIPOS>BOND
     1    18    19   ar
     2    19    20   ar
     3    19    17    1
     4     7    17    1
     5     7     8    1
     6     8     9    1
     7     9    10    1
     8    10    11    1
     9    11    12    1
    10    12    13    1
    11    13     1    1
    12     1     2   ar
    13     2     3   ar
    14     3     4   ar
    15     4    21    1
    16    21    22    2
    17    22    23    1
    18    23    24    2
    19    24    25    1
    20    25    30    1
    21    30    31    1
    22    30    32    1
    23    30    33    1
    24    25    26    2
    25    26    27    1
    26    27    28    1
    27    28    29    2
    28     4     5   ar
    29     5     6   ar
    30    13    14    1
    31    14    15    1
    32    10    16    1
    33    16     7    1
    34    15    10    1
    35     6     1   ar
    36    29    21    1
    37    28    23    1
@<TRIPOS>MOLECULE
*****
 33 37 0 0 0
SMALL
GASTEIGER

@<TRIPOS>ATOM
      1 C         142.2366  140.5313  162.1018 C.ar    1  UNL1        0.1317
      2 C         143.0735  141.7651  161.9371 C.ar    1  UNL1        0.0346
      3 C         143.8504  141.9811  160.6722 C.ar    1  UNL1        0.0121
      4 C         143.7903  140.9632  159.5721 C.ar    1  UNL1        0.1076
      5 C         142.9534  139.7293  159.7369 C.ar    1  UNL1        0.1080
      6 N         142.1765  139.5134  161.0017 N.ar    1  UNL1       -0.2289
      7 C         139.1976  139.9821  168.2157 C.3     1  UNL1        0.0375
      8 C         138.2232  139.1194  167.4698 C.3     1  UNL1        0.1423
      9 O         138.6610  139.0582  166.0363 O.3     1  UNL1       -0.3584
     10 C         139.9060  139.8832  165.8963 C.3     1  UNL1        0.0961
     11 C         139.4505  139.2440  164.6180 C.3     1  UNL1        0.0487
     12 C         140.2274  139.4601  163.3532 C.3     1  UNL1        0.0946
     13 N         141.4597  140.3152  163.3667 N.pl3   1  UNL1       -0.2931
     14 C         141.9151  140.9544  164.6450 C.3     1  UNL1        0.0946
     15 C         141.1382  140.7383  165.9098 C.3     1  UNL1        0.0487
     16 C         140.2376  140.4542  167.2432 C.3     1  UNL1        0.0302
     17 C         139.1419  140.3144  169.6772 C.3     1  UNL1        0.0443
     18 O         141.4771  139.2667  170.1231 O.co2   1  UNL1       -0.5492
     19 C         140.3798  140.2100  170.5179 C.2     1  UNL1        0.0504
     20 O         140.5203  141.0490  171.7534 O.co2   1  UNL1       -0.5492
     21 C         144.5672  141.1792  158.3073 C.2     1  UNL1        0.3767
     22 N         145.5357  142.2946  158.0470 N.2     1  UNL1       -0.0308
     23 C         146.0790  142.1225  156.6595 C.2     1  UNL1        0.2320
     24 C         147.0682  142.9204  155.8628 C.2     1  UNL1        0.0537
     25 C         147.4246  142.4965  154.4687 C.2     1  UNL1        0.0714
     26 C         146.7918  141.2747  153.8714 C.2     1  UNL1       -0.0133
     27 C         145.8026  140.4768  154.6682 C.3     1  UNL1        0.1037
     28 C         145.4462  140.9006  156.0622 C.2     1  UNL1        0.2178
     29 N         144.5118  140.3177  157.0806 N.2     1  UNL1       -0.0347
     30 C         148.4137  143.2945  153.6720 C.3     1  UNL1        0.4184
     31 F         149.4029  144.0924  152.8752 F       1  UNL1       -0.1659
     32 F         147.4867  144.4733  153.7017 F       1  UNL1       -0.1659
     33 F         149.3408  142.1156  153.6423 F       1  UNL1       -0.1659
@<TRIPOS>UNITY_ATOM_ATTR
18 1
charge -1
@<TRIPOS>BOND
     1    18    19   ar
     2    19    20   ar
     3    19    17    1
     4     7    17    1
     5     7     8    1
     6     8     9    1
     7     9    10    1
     8    10    11    1
     9    11    12    1
    10    12    13    1
    11    13     1    1
    12     1     2   ar
    13     2     3   ar
    14     3     4   ar
    15     4    21    1
    16    21    22    2
    17    22    23    1
    18    23    24    2
    19    24    25    1
    20    25    30    1
    21    30    31    1
    22    30    32    1
    23    30    33    1
    24    25    26    2
    25    26    27    1
    26    27    28    1
    27    28    29    2
    28     4     5   ar
    29     5     6   ar
    30    13    14    1
    31    14    15    1
    32    10    16    1
    33    16     7    1
    34    15    10    1
    35     6     1   ar
    36    29    21    1
    37    28    23    1
@<TRIPOS>MOLECULE
*****
 33 37 0 0 0
SMALL
GASTEIGER

@<TRIPOS>ATOM
      1 C         143.2075  141.4260  162.5809 C.ar    1  UNL1        0.1317
      2 C         143.9961  142.6530  162.2312 C.ar    1  UNL1        0.0346
      3 C         144.5000  142.8472  160.8317 C.ar    1  UNL1        0.0121
      4 C         144.2153  141.8142  159.7820 C.ar    1  UNL1        0.1076
      5 C         143.4266  140.5871  160.1318 C.ar    1  UNL1        0.1080
      6 N         142.9228  140.3930  161.5312 N.ar    1  UNL1       -0.2289
      7 C         140.4478  141.1198  168.8423 C.3     1  UNL1        0.0375
      8 C         141.3935  139.9695  169.0232 C.3     1  UNL1        0.1423
      9 O         142.1649  139.7987  167.7481 O.3     1  UNL1       -0.3584
     10 C         141.6960  140.8434  166.7792 C.3     1  UNL1        0.0961
     11 C         142.7669  139.9444  166.2361 C.3     1  UNL1        0.0487
     12 C         143.2707  140.1386  164.8367 C.3     1  UNL1        0.0946
     13 N         142.7037  141.2318  163.9804 N.pl3   1  UNL1       -0.2931
     14 C         141.6328  142.1309  164.5234 C.3     1  UNL1        0.0946
     15 C         141.1290  141.9367  165.9228 C.3     1  UNL1        0.0487
     16 C         140.6348  141.6599  167.4555 C.3     1  UNL1        0.0302
     17 C         139.4844  141.6388  169.8681 C.3     1  UNL1        0.0443
     18 O         140.6253  142.2067  172.1321 O.co2   1  UNL1       -0.5492
     19 C         139.9367  142.6530  170.8765 C.2     1  UNL1        0.0504
     20 O         139.7004  144.1135  170.6292 O.co2   1  UNL1       -0.5492
     21 C         144.7191  142.0083  158.3826 C.2     1  UNL1        0.3767
     22 N         146.1182  142.3839  157.9934 N.2     1  UNL1       -0.0308
     23 C         146.1761  142.4687  156.4969 C.2     1  UNL1        0.2320
     24 C         147.2941  142.7984  155.5528 C.2     1  UNL1        0.0537
     25 C         147.0488  142.8049  154.0729 C.2     1  UNL1        0.0714
     26 C         145.6855  142.4817  153.5373 C.2     1  UNL1       -0.0133
     27 C         144.5675  142.1520  154.4814 C.3     1  UNL1        0.1037
     28 C         144.8128  142.1454  155.9612 C.2     1  UNL1        0.2178
     29 N         143.9123  141.8610  157.1266 N.2     1  UNL1       -0.0347
     30 C         148.1668  143.1346  153.1288 C.3     1  UNL1        0.4184
     31 F         149.2848  143.4643  152.1847 F       1  UNL1       -0.1659
     32 F         148.2412  141.6950  152.7141 F       1  UNL1       -0.1659
     33 F         148.0924  144.5742  153.5435 F       1  UNL1       -0.1659
@<TRIPOS>UNITY_ATOM_ATTR
18 1
charge -1
@<TRIPOS>BOND
     1    18    19   ar
     2    19    20   ar
     3    19    17    1
     4     7    17    1
     5     7     8    1
     6     8     9    1
     7     9    10    1
     8    10    11    1
     9    11    12    1
    10    12    13    1
    11    13     1    1
    12     1     2   ar
    13     2     3   ar
    14     3     4   ar
    15     4    21    1
    16    21    22    2
    17    22    23    1
    18    23    24    2
    19    24    25    1
    20    25    30    1
    21    30    31    1
    22    30    32    1
    23    30    33    1
    24    25    26    2
    25    26    27    1
    26    27    28    1
    27    28    29    2
    28     4     5   ar
    29     5     6   ar
    30    13    14    1
    31    14    15    1
    32    10    16    1
    33    16     7    1
    34    15    10    1
    35     6     1   ar
    36    29    21    1
    37    28    23    1
@<TRIPOS>MOLECULE
*****
 33 37 0 0 0
SMALL
GASTEIGER

@<TRIPOS>ATOM
      1 C         141.6527  138.6368  160.5894 C.ar    1  UNL1        0.1317
      2 C         141.1445  139.9658  161.0644 C.ar    1  UNL1        0.0346
      3 C         141.3629  140.3873  162.4873 C.ar    1  UNL1        0.0121
      4 C         142.0895  139.4799  163.4352 C.ar    1  UNL1        0.1076
      5 C         142.5977  138.1508  162.9602 C.ar    1  UNL1        0.1080
      6 N         142.3793  137.7293  161.5374 N.ar    1  UNL1       -0.2289
      7 C         139.9448  136.9394  154.1771 C.3     1  UNL1        0.0375
      8 C         141.3783  136.5074  154.0851 C.3     1  UNL1        0.1423
      9 O         142.0290  136.7749  155.4100 O.3     1  UNL1       -0.3584
     10 C         140.9976  137.3721  156.3208 C.3     1  UNL1        0.0961
     11 C         142.3482  137.2088  156.9525 C.3     1  UNL1        0.0487
     12 C         142.5666  137.6304  158.3754 C.3     1  UNL1        0.0946
     13 N         141.4343  138.2152  159.1665 N.pl3   1  UNL1       -0.2931
     14 C         140.0837  138.3786  158.5348 C.3     1  UNL1        0.0946
     15 C         139.8653  137.9570  157.1119 C.3     1  UNL1        0.0487
     16 C         139.7095  137.4738  155.5588 C.3     1  UNL1        0.0302
     17 C         138.9256  136.8523  153.0801 C.3     1  UNL1        0.0443
     18 O         138.7471  139.2940  152.2108 O.co2   1  UNL1       -0.5492
     19 C         138.0920  138.0503  152.7340 C.2     1  UNL1        0.0504
     20 O         136.6031  138.0046  152.9111 O.co2   1  UNL1       -0.5492
     21 C         142.3079  139.9013  164.8581 C.2     1  UNL1        0.3767
     22 N         142.6528  141.2845  165.3249 N.2     1  UNL1       -0.0308
     23 C         142.7778  141.2517  166.8193 C.2     1  UNL1        0.2320
     24 C         143.1008  142.3185  167.8231 C.2     1  UNL1        0.0537
     25 C         143.1561  141.9818  169.2838 C.2     1  UNL1        0.0714
     26 C         142.8885  140.5784  169.7406 C.2     1  UNL1       -0.0133
     27 C         142.5655  139.5116  168.7368 C.3     1  UNL1        0.1037
     28 C         142.5102  139.8482  167.2762 C.2     1  UNL1        0.2178
     29 N         142.2197  139.0137  166.0641 N.2     1  UNL1       -0.0347
     30 C         143.4791  143.0485  170.2877 C.3     1  UNL1        0.4184
     31 F         143.8021  144.1153  171.2915 F       1  UNL1       -0.1659
     32 F         142.0233  143.3960  170.3869 F       1  UNL1       -0.1659
     33 F         144.9350  142.7011  170.1885 F       1  UNL1       -0.1659
@<TRIPOS>UNITY_ATOM_ATTR
18 1
charge -1
@<TRIPOS>BOND
     1    18    19   ar
     2    19    20   ar
     3    19    17    1
     4     7    17    1
     5     7     8    1
     6     8     9    1
     7     9    10    1
     8    10    11    1
     9    11    12    1
    10    12    13    1
    11    13     1    1
    12     1     2   ar
    13     2     3   ar
    14     3     4   ar
    15     4    21    1
    16    21    22    2
    17    22    23    1
    18    23    24    2
    19    24    25    1
    20    25    30    1
    21    30    31    1
    22    30    32    1
    23    30    33    1
    24    25    26    2
    25    26    27    1
    26    27    28    1
    27    28    29    2
    28     4     5   ar
    29     5     6   ar
    30    13    14    1
    31    14    15    1
    32    10    16    1
    33    16     7    1
    34    15    10    1
    35     6     1   ar
    36    29    21    1
    37    28    23    1
@<TRIPOS>MOLECULE
*****
 33 37 0 0 0
SMALL
GASTEIGER

@<TRIPOS>ATOM
      1 C         141.6031  138.4638  160.4776 C.ar    1  UNL1        0.1317
      2 C         140.6574  138.0156  161.5521 C.ar    1  UNL1        0.0346
      3 C         140.8784  138.4444  162.9725 C.ar    1  UNL1        0.0121
      4 C         142.0452  139.3213  163.3183 C.ar    1  UNL1        0.1076
      5 C         142.9910  139.7695  162.2436 C.ar    1  UNL1        0.1080
      6 N         142.7699  139.3407  160.8234 N.ar    1  UNL1       -0.2289
      7 C         141.2773  136.1960  154.0226 C.3     1  UNL1        0.0375
      8 C         139.9224  136.8396  154.0392 C.3     1  UNL1        0.1423
      9 O         139.7139  137.4462  155.3952 O.3     1  UNL1       -0.3584
     10 C         140.9400  137.1776  156.2166 C.3     1  UNL1        0.0961
     11 C         139.8772  137.9493  156.9411 C.3     1  UNL1        0.0487
     12 C         140.0983  138.3780  158.3614 C.3     1  UNL1        0.0946
     13 N         141.3821  138.0350  159.0572 N.pl3   1  UNL1       -0.2931
     14 C         142.4449  137.2634  158.3327 C.3     1  UNL1        0.0946
     15 C         142.2238  136.8347  156.9124 C.3     1  UNL1        0.0487
     16 C         141.9062  136.4049  155.3683 C.3     1  UNL1        0.0302
     17 C         141.8948  135.4710  152.8639 C.3     1  UNL1        0.0443
     18 O         142.2282  132.9250  152.4678 O.co2   1  UNL1       -0.5492
     19 C         141.3502  134.1407  152.4352 C.2     1  UNL1        0.0504
     20 O         139.9274  134.0261  151.9740 O.co2   1  UNL1       -0.5492
     21 C         142.2663  139.7501  164.7385 C.2     1  UNL1        0.3767
     22 N         142.5575  141.1464  165.2028 N.2     1  UNL1       -0.0308
     23 C         142.7061  141.1171  166.6951 C.2     1  UNL1        0.2320
     24 C         142.9972  142.1957  167.6961 C.2     1  UNL1        0.0537
     25 C         143.0890  141.8598  169.1552 C.2     1  UNL1        0.0714
     26 C         142.8897  140.4454  169.6132 C.2     1  UNL1       -0.0133
     27 C         142.5986  139.3669  168.6122 C.3     1  UNL1        0.1037
     28 C         142.5068  139.7027  167.1532 C.2     1  UNL1        0.2178
     29 N         142.2350  138.8579  165.9439 N.2     1  UNL1       -0.0347
     30 C         143.3801  142.9383  170.1562 C.3     1  UNL1        0.4184
     31 F         143.6712  144.0169  171.1572 F       1  UNL1       -0.1659
     32 F         141.9190  143.2712  170.2225 F       1  UNL1       -0.1659
     33 F         144.8412  142.6054  170.0900 F       1  UNL1       -0.1659
@<TRIPOS>UNITY_ATOM_ATTR
18 1
charge -1
@<TRIPOS>BOND
     1    18    19   ar
     2    19    20   ar
     3    19    17    1
     4     7    17    1
     5     7     8    1
     6     8     9    1
     7     9    10    1
     8    10    11    1
     9    11    12    1
    10    12    13    1
    11    13     1    1
    12     1     2   ar
    13     2     3   ar
    14     3     4   ar
    15     4    21    1
    16    21    22    2
    17    22    23    1
    18    23    24    2
    19    24    25    1
    20    25    30    1
    21    30    31    1
    22    30    32    1
    23    30    33    1
    24    25    26    2
    25    26    27    1
    26    27    28    1
    27    28    29    2
    28     4     5   ar
    29     5     6   ar
    30    13    14    1
    31    14    15    1
    32    10    16    1
    33    16     7    1
    34    15    10    1
    35     6     1   ar
    36    29    21    1
    37    28    23    1
@<TRIPOS>MOLECULE
*****
 33 37 0 0 0
SMALL
GASTEIGER

@<TRIPOS>ATOM
      1 C         144.0984  141.5583  160.2243 C.ar    1  UNL1        0.1317
      2 C         144.5944  142.6335  161.1450 C.ar    1  UNL1        0.0346
      3 C         144.1457  142.6614  162.5761 C.ar    1  UNL1        0.0121
      4 C         143.2010  141.6140  163.0864 C.ar    1  UNL1        0.1076
      5 C         142.7049  140.5387  162.1656 C.ar    1  UNL1        0.1080
      6 N         143.1536  140.5109  160.7345 N.ar    1  UNL1       -0.2289
      7 C         146.6082  141.9972  153.8663 C.3     1  UNL1        0.0375
      8 C         145.6614  140.8666  153.5914 C.3     1  UNL1        0.1423
      9 O         144.9421  140.5438  154.8676 O.3     1  UNL1       -0.3584
     10 C         145.4443  141.4748  155.9311 C.3     1  UNL1        0.0961
     11 C         144.4001  140.5097  156.4086 C.3     1  UNL1        0.0487
     12 C         143.9514  140.5375  157.8396 C.3     1  UNL1        0.0946
     13 N         144.5471  141.5305  158.7932 N.pl3   1  UNL1       -0.2931
     14 C         145.5913  142.4956  158.3157 C.3     1  UNL1        0.0946
     15 C         146.0399  142.4678  156.8846 C.3     1  UNL1        0.0487
     16 C         146.4740  142.3730  155.3122 C.3     1  UNL1        0.0302
     17 C         147.5276  142.6391  152.8701 C.3     1  UNL1        0.0443
     18 O         147.1497  145.1522  153.4100 O.co2   1  UNL1       -0.5492
     19 C         148.0800  144.0086  153.1333 C.2     1  UNL1        0.0504
     20 O         149.5629  144.2346  153.1196 O.co2   1  UNL1       -0.5492
     21 C         142.7523  141.6418  164.5174 C.2     1  UNL1        0.3767
     22 N         141.7399  142.5792  165.1059 N.2     1  UNL1       -0.0308
     23 C         141.5991  142.2538  166.5634 C.2     1  UNL1        0.2320
     24 C         140.7478  142.8471  167.6466 C.2     1  UNL1        0.0537
     25 C         140.8219  142.3019  169.0421 C.2     1  UNL1        0.0714
     26 C         141.7473  141.1635  169.3543 C.2     1  UNL1       -0.0133
     27 C         142.5986  140.5701  168.2712 C.3     1  UNL1        0.1037
     28 C         142.5245  141.1153  166.8757 C.2     1  UNL1        0.2178
     29 N         143.2372  140.7370  165.6112 N.2     1  UNL1       -0.0347
     30 C         139.9707  142.8953  170.1253 C.3     1  UNL1        0.4184
     31 F         139.1194  143.4886  171.2084 F       1  UNL1       -0.1659
     32 F         139.2403  141.5926  170.2649 F       1  UNL1       -0.1659
     33 F         140.7010  144.1980  169.9857 F       1  UNL1       -0.1659
@<TRIPOS>UNITY_ATOM_ATTR
18 1
charge -1
@<TRIPOS>BOND
     1    18    19   ar
     2    19    20   ar
     3    19    17    1
     4     7    17    1
     5     7     8    1
     6     8     9    1
     7     9    10    1
     8    10    11    1
     9    11    12    1
    10    12    13    1
    11    13     1    1
    12     1     2   ar
    13     2     3   ar
    14     3     4   ar
    15     4    21    1
    16    21    22    2
    17    22    23    1
    18    23    24    2
    19    24    25    1
    20    25    30    1
    21    30    31    1
    22    30    32    1
    23    30    33    1
    24    25    26    2
    25    26    27    1
    26    27    28    1
    27    28    29    2
    28     4     5   ar
    29     5     6   ar
    30    13    14    1
    31    14    15    1
    32    10    16    1
    33    16     7    1
    34    15    10    1
    35     6     1   ar
    36    29    21    1
    37    28    23    1
@<TRIPOS>MOLECULE
*****
 33 37 0 0 0
SMALL
GASTEIGER

@<TRIPOS>ATOM
      1 C         141.9439  142.8649  162.2716 C.ar    1  UNL1        0.1317
      2 C         140.7114  143.6528  161.9400 C.ar    1  UNL1        0.0346
      3 C         140.5589  144.2704  160.5815 C.ar    1  UNL1        0.0121
      4 C         141.6390  144.1000  159.5547 C.ar    1  UNL1        0.1076
      5 C         142.8716  143.3121  159.8864 C.ar    1  UNL1        0.1080
      6 N         143.0240  142.6945  161.2448 N.ar    1  UNL1       -0.2289
      7 C         142.6708  140.7453  168.7442 C.3     1  UNL1        0.0375
      8 C         142.6009  139.3783  168.1306 C.3     1  UNL1        0.1423
      9 O         142.4343  139.5432  166.6490 O.3     1  UNL1       -0.3584
     10 C         142.4012  141.0122  166.3469 C.3     1  UNL1        0.0961
     11 C         142.2645  140.1371  165.1363 C.3     1  UNL1        0.0487
     12 C         142.1121  140.7547  163.7779 C.3     1  UNL1        0.0946
     13 N         142.0963  142.2473  163.6301 N.pl3   1  UNL1       -0.2931
     14 C         142.2331  143.1224  164.8407 C.3     1  UNL1        0.0946
     15 C         142.3855  142.5048  166.1991 C.3     1  UNL1        0.0487
     16 C         142.5474  141.7550  167.6419 C.3     1  UNL1        0.0302
     17 C         142.8351  141.0491  170.2038 C.3     1  UNL1        0.0443
     18 O         141.6862  143.3224  170.7158 O.co2   1  UNL1       -0.5492
     19 C         141.7869  141.8409  170.9278 C.2     1  UNL1        0.0504
     20 O         140.8392  141.1512  171.8639 O.co2   1  UNL1       -0.5492
     21 C         141.4866  144.7176  158.1963 C.2     1  UNL1        0.3767
     22 N         140.7000  145.9531  157.8727 N.2     1  UNL1       -0.0308
     23 C         140.8213  146.2071  156.3993 C.2     1  UNL1        0.2320
     24 C         140.2585  147.2812  155.5164 C.2     1  UNL1        0.0537
     25 C         140.5573  147.2767  154.0464 C.2     1  UNL1        0.0714
     26 C         141.4189  146.1983  153.4594 C.2     1  UNL1       -0.0133
     27 C         141.9817  145.1242  154.3424 C.3     1  UNL1        0.1037
     28 C         141.6829  145.1286  155.8123 C.2     1  UNL1        0.2178
     29 N         142.0941  144.2080  156.9229 N.2     1  UNL1       -0.0347
     30 C         139.9946  148.3508  153.1634 C.3     1  UNL1        0.4184
     31 F         139.4318  149.4249  152.2804 F       1  UNL1       -0.1659
     32 F         140.6988  147.7496  151.9833 F       1  UNL1       -0.1659
     33 F         139.2903  148.9520  154.3435 F       1  UNL1       -0.1659
@<TRIPOS>UNITY_ATOM_ATTR
18 1
charge -1
@<TRIPOS>BOND
     1    18    19   ar
     2    19    20   ar
     3    19    17    1
     4     7    17    1
     5     7     8    1
     6     8     9    1
     7     9    10    1
     8    10    11    1
     9    11    12    1
    10    12    13    1
    11    13     1    1
    12     1     2   ar
    13     2     3   ar
    14     3     4   ar
    15     4    21    1
    16    21    22    2
    17    22    23    1
    18    23    24    2
    19    24    25    1
    20    25    30    1
    21    30    31    1
    22    30    32    1
    23    30    33    1
    24    25    26    2
    25    26    27    1
    26    27    28    1
    27    28    29    2
    28     4     5   ar
    29     5     6   ar
    30    13    14    1
    31    14    15    1
    32    10    16    1
    33    16     7    1
    34    15    10    1
    35     6     1   ar
    36    29    21    1
    37    28    23    1
@<TRIPOS>MOLECULE
*****
 33 37 0 0 0
SMALL
GASTEIGER

@<TRIPOS>ATOM
      1 C         142.1017  139.9807  162.3752 C.ar    1  UNL1        0.1317
      2 C         142.3392  138.5170  162.1491 C.ar    1  UNL1        0.0346
      3 C         142.3332  137.9628  160.7552 C.ar    1  UNL1        0.0121
      4 C         142.0897  138.8723  159.5875 C.ar    1  UNL1        0.1076
      5 C         141.8522  140.3361  159.8137 C.ar    1  UNL1        0.1080
      6 N         141.8582  140.8902  161.2076 N.ar    1  UNL1       -0.2289
      7 C         141.3909  142.6208  168.6554 C.3     1  UNL1        0.0375
      8 C         142.8672  142.3717  168.7481 C.3     1  UNL1        0.1423
      9 O         143.3176  141.7676  167.4511 O.3     1  UNL1       -0.3584
     10 C         142.1198  141.6434  166.5568 C.3     1  UNL1        0.0961
     11 C         143.3952  141.1505  165.9402 C.3     1  UNL1        0.0487
     12 C         143.3892  140.5963  164.5463 C.3     1  UNL1        0.0946
     13 N         142.1077  140.5350  163.7691 N.pl3   1  UNL1       -0.2931
     14 C         140.8323  141.0278  164.3858 C.3     1  UNL1        0.0946
     15 C         140.8383  141.5820  165.7796 C.3     1  UNL1        0.0487
     16 C         140.9290  142.1707  167.3011 C.3     1  UNL1        0.0302
     17 C         140.5280  143.2156  169.7285 C.3     1  UNL1        0.0443
     18 O         138.7318  141.4475  170.3588 O.co2   1  UNL1       -0.5492
     19 C         139.8821  142.3271  170.7499 C.2     1  UNL1        0.0504
     20 O         140.3865  142.3182  172.1626 O.co2   1  UNL1       -0.5492
     21 C         142.0837  138.3181  158.1937 C.2     1  UNL1        0.3767
     22 N         141.9982  136.8674  157.8220 N.2     1  UNL1       -0.0308
     23 C         142.0238  136.7701  156.3254 C.2     1  UNL1        0.2320
     24 C         141.9679  135.5949  155.3950 C.2     1  UNL1        0.0537
     25 C         142.0134  135.8102  153.9112 C.2     1  UNL1        0.0714
     26 C         142.1148  137.2007  153.3579 C.2     1  UNL1       -0.0133
     27 C         142.1707  138.3759  154.2883 C.3     1  UNL1        0.1037
     28 C         142.1252  138.1606  155.7721 C.2     1  UNL1        0.2178
     29 N         142.1623  139.1174  156.9268 N.2     1  UNL1       -0.0347
     30 C         141.9575  134.6350  152.9807 C.3     1  UNL1        0.4184
     31 F         141.9016  133.4598  152.0502 F       1  UNL1       -0.1659
     32 F         141.0502  135.4027  152.0656 F       1  UNL1       -0.1659
     33 F         142.8647  133.8673  153.8959 F       1  UNL1       -0.1659
@<TRIPOS>UNITY_ATOM_ATTR
18 1
charge -1
@<TRIPOS>BOND
     1    18    19   ar
     2    19    20   ar
     3    19    17    1
     4     7    17    1
     5     7     8    1
     6     8     9    1
     7     9    10    1
     8    10    11    1
     9    11    12    1
    10    12    13    1
    11    13     1    1
    12     1     2   ar
    13     2     3   ar
    14     3     4   ar
    15     4    21    1
    16    21    22    2
    17    22    23    1
    18    23    24    2
    19    24    25    1
    20    25    30    1
    21    30    31    1
    22    30    32    1
    23    30    33    1
    24    25    26    2
    25    26    27    1
    26    27    28    1
    27    28    29    2
    28     4     5   ar
    29     5     6   ar
    30    13    14    1
    31    14    15    1
    32    10    16    1
    33    16     7    1
    34    15    10    1
    35     6     1   ar
    36    29    21    1
    37    28    23    1
