@<TRIPOS>MOLECULE
*****
 29 32 0 0 0
SMALL
GASTEIGER

@<TRIPOS>ATOM
      1 C         140.1425  138.8623  162.8887 C.2     1  UNL1        0.3270
      2 N         139.6561  139.2428  161.5218 N.2     1  UNL1       -0.0380
      3 C         139.0400  140.6075  161.6121 C.2     1  UNL1        0.2637
      4 C         138.3965  141.4884  160.5827 C.2     1  UNL1        0.2821
      5 N         137.8586  142.8323  160.9761 N.2     1  UNL1       -0.0268
      6 C         137.9644  143.2952  162.3989 C.2     1  UNL1        0.3760
      7 N         137.5282  144.5596  163.0780 N.2     1  UNL1       -0.0306
      8 C         137.9023  144.4600  164.5272 C.2     1  UNL1        0.2361
      9 C         138.5695  143.1342  164.7438 C.2     1  UNL1        0.0583
     10 C         138.6079  142.4143  163.4284 C.2     1  UNL1        0.1203
     11 C         139.1458  141.0704  163.0350 C.3     1  UNL1        0.2596
     12 N         139.8271  139.9919  163.8240 N.pl3   1  UNL1       -0.1887
     13 C         140.1384  140.0352  165.2906 C.3     1  UNL1        0.1606
     14 C         141.5405  140.3021  165.7522 C.3     1  UNL1        0.0480
     15 C         141.8518  140.3454  167.2189 C.3     1  UNL1        0.0198
     16 C         140.7611  140.1219  168.2240 C.3     1  UNL1        0.0545
     17 C         139.3590  139.8550  167.7625 C.3     1  UNL1        0.0198
     18 C         139.0477  139.8117  166.2958 C.3     1  UNL1        0.0480
     19 N         141.0724  140.1652  169.6907 N.3     1  UNL1       -0.2914
     20 H         141.9251  139.6224  169.8269 H       1  UNL1        0.1235
     21 C         141.2847  141.4837  170.3737 C.3     1  UNL1        0.1731
     22 C         140.7062  142.7357  169.7838 C.3     1  UNL1        0.4118
     23 F         140.1276  143.9876  169.1940 F       1  UNL1       -0.1685
     24 F         139.3452  142.3369  170.2723 F       1  UNL1       -0.1685
     25 F         142.0672  143.1345  169.2953 F       1  UNL1       -0.1685
     26 C         140.5227  136.9169  164.5682 C.3     1  UNL1        0.0450
     27 C         140.8246  137.5778  163.2559 C.3     1  UNL1        0.2165
     28 O         141.8084  136.9543  162.3109 O.3     1  UNL1       -0.3737
     29 H         141.8867  137.5047  161.5160 H       1  UNL1        0.2111
@<TRIPOS>BOND
     1    27    26    1
     2    27    28    1
     3    27     1    1
     4     1     2    2
     5     2     3    1
     6     3     4    2
     7     4     5    1
     8     5     6    2
     9     6     7    1
    10     7     8    2
    11     8     9    1
    12     9    10    2
    13    10    11    1
    14    11    12    1
    15    13    12    1
    16    13    14    1
    17    14    15    1
    18    15    16    1
    19    16    19    1
    20    19    21    1
    21    21    22    1
    22    22    23    1
    23    22    24    1
    24    22    25    1
    25    16    17    1
    26    17    18    1
    27    12     1    1
    28    18    13    1
    29    11     3    1
    30    10     6    1
    31    28    29    1
    32    19    20    1
@<TRIPOS>MOLECULE
*****
 29 32 0 0 0
SMALL
GASTEIGER

@<TRIPOS>ATOM
      1 C         143.7829  141.8787  162.9565 C.2     1  UNL1        0.3270
      2 N         143.4840  142.3819  161.5754 N.2     1  UNL1       -0.0380
      3 C         142.1263  143.0193  161.5981 C.2     1  UNL1        0.2637
      4 C         141.3121  143.6851  160.5286 C.2     1  UNL1        0.2821
      5 N         139.9577  144.2416  160.8542 N.2     1  UNL1       -0.0268
      6 C         139.4176  144.1324  162.2493 C.2     1  UNL1        0.3760
      7 N         138.1258  144.5837  162.8637 N.2     1  UNL1       -0.0306
      8 C         138.1416  144.1968  164.3128 C.2     1  UNL1        0.2361
      9 C         139.4432  143.5064  164.5941 C.2     1  UNL1        0.0583
     10 C         140.2319  143.4665  163.3188 C.2     1  UNL1        0.1203
     11 C         141.5862  142.9100  162.9932 C.3     1  UNL1        0.2596
     12 N         142.6100  142.2051  163.8327 N.pl3   1  UNL1       -0.1887
     13 C         142.4832  141.8831  165.2922 C.3     1  UNL1        0.1606
     14 C         141.5035  140.8429  165.7484 C.3     1  UNL1        0.0480
     15 C         141.3767  140.5209  167.2080 C.3     1  UNL1        0.0198
     16 C         142.2297  141.2391  168.2113 C.3     1  UNL1        0.0545
     17 C         143.2095  142.2793  167.7551 C.3     1  UNL1        0.0198
     18 C         143.3362  142.6013  166.2956 C.3     1  UNL1        0.0480
     19 N         142.1029  140.9171  169.6708 N.3     1  UNL1       -0.2914
     20 H         143.0472  140.7508  170.0188 H       1  UNL1        0.1235
     21 C         141.4651  141.9033  170.6038 C.3     1  UNL1        0.1731
     22 C         140.8021  143.1327  170.0568 C.3     1  UNL1        0.4118
     23 F         140.1390  144.3620  169.5098 F       1  UNL1       -0.1685
     24 F         139.5392  142.3538  169.8372 F       1  UNL1       -0.1685
     25 F         142.0651  143.9116  170.2765 F       1  UNL1       -0.1685
     26 C         144.9523  139.8101  164.0069 C.3     1  UNL1        0.0450
     27 C         145.0349  141.1730  163.3859 C.3     1  UNL1        0.2165
     28 O         146.3696  141.8302  163.1944 O.3     1  UNL1       -0.3737
     29 H         146.2456  142.7001  162.7833 H       1  UNL1        0.2111
@<TRIPOS>BOND
     1    27    26    1
     2    27    28    1
     3    27     1    1
     4     1     2    2
     5     2     3    1
     6     3     4    2
     7     4     5    1
     8     5     6    2
     9     6     7    1
    10     7     8    2
    11     8     9    1
    12     9    10    2
    13    10    11    1
    14    11    12    1
    15    13    12    1
    16    13    14    1
    17    14    15    1
    18    15    16    1
    19    16    19    1
    20    19    21    1
    21    21    22    1
    22    22    23    1
    23    22    24    1
    24    22    25    1
    25    16    17    1
    26    17    18    1
    27    12     1    1
    28    18    13    1
    29    11     3    1
    30    10     6    1
    31    28    29    1
    32    19    20    1
@<TRIPOS>MOLECULE
*****
 29 32 0 0 0
SMALL
GASTEIGER

@<TRIPOS>ATOM
      1 C         139.9125  143.7826  163.2088 C.2     1  UNL1        0.3270
      2 N         140.6651  144.2942  162.0164 N.2     1  UNL1       -0.0380
      3 C         142.0117  143.6335  161.9998 C.2     1  UNL1        0.2637
      4 C         143.1756  143.7507  161.0610 C.2     1  UNL1        0.2821
      5 N         144.4193  142.9479  161.3042 N.2     1  UNL1       -0.0268
      6 C         144.4988  142.0280  162.4863 C.2     1  UNL1        0.3760
      7 N         145.5850  141.1183  162.9788 N.2     1  UNL1       -0.0306
      8 C         145.0923  140.4389  164.2221 C.2     1  UNL1        0.2361
      9 C         143.7016  140.9287  164.4979 C.2     1  UNL1        0.0583
     10 C         143.3348  141.9108  163.4252 C.2     1  UNL1        0.1203
     11 C         142.0913  142.7136  163.1819 C.3     1  UNL1        0.2596
     12 N         140.7939  142.8058  163.9291 N.pl3   1  UNL1       -0.1887
     13 C         140.4400  142.0532  165.1775 C.3     1  UNL1        0.1606
     14 C         140.7942  142.6196  166.5205 C.3     1  UNL1        0.0480
     15 C         140.4403  141.8669  167.7689 C.3     1  UNL1        0.0198
     16 C         139.7323  140.5480  167.6742 C.3     1  UNL1        0.0545
     17 C         139.3781  139.9816  166.3311 C.3     1  UNL1        0.0198
     18 C         139.7320  140.7341  165.0828 C.3     1  UNL1        0.0480
     19 N         139.3784  139.7954  168.9225 N.3     1  UNL1       -0.2914
     20 H         139.9174  138.9296  168.9071 H       1  UNL1        0.1235
     21 C         139.6050  140.4226  170.2661 C.3     1  UNL1        0.1731
     22 C         140.9866  140.4693  170.8486 C.3     1  UNL1        0.4118
     23 F         142.3680  140.5160  171.4311 F       1  UNL1       -0.1685
     24 F         141.2794  139.1202  170.2621 F       1  UNL1       -0.1685
     25 F         140.6937  141.8186  171.4351 F       1  UNL1       -0.1685
     26 C         138.2480  144.6336  165.0131 C.3     1  UNL1        0.0450
     27 C         138.5226  144.1785  163.6104 C.3     1  UNL1        0.2165
     28 O         137.4071  144.1192  162.6093 O.3     1  UNL1       -0.3737
     29 H         137.7526  143.8069  161.7584 H       1  UNL1        0.2111
@<TRIPOS>BOND
     1    27    26    1
     2    27    28    1
     3    27     1    1
     4     1     2    2
     5     2     3    1
     6     3     4    2
     7     4     5    1
     8     5     6    2
     9     6     7    1
    10     7     8    2
    11     8     9    1
    12     9    10    2
    13    10    11    1
    14    11    12    1
    15    13    12    1
    16    13    14    1
    17    14    15    1
    18    15    16    1
    19    16    19    1
    20    19    21    1
    21    21    22    1
    22    22    23    1
    23    22    24    1
    24    22    25    1
    25    16    17    1
    26    17    18    1
    27    12     1    1
    28    18    13    1
    29    11     3    1
    30    10     6    1
    31    28    29    1
    32    19    20    1
@<TRIPOS>MOLECULE
*****
 29 32 0 0 0
SMALL
GASTEIGER

@<TRIPOS>ATOM
      1 C         143.1063  139.8140  166.0395 C.2     1  UNL1        0.3270
      2 N         143.2005  138.8946  167.2210 N.2     1  UNL1       -0.0380
      3 C         142.5765  139.5857  168.3971 C.2     1  UNL1        0.2637
      4 C         142.3833  139.1630  169.8232 C.2     1  UNL1        0.2821
      5 N         141.7102  140.0867  170.7947 N.2     1  UNL1       -0.0268
      6 C         141.2304  141.4331  170.3400 C.2     1  UNL1        0.3760
      7 N         140.5376  142.5490  171.0645 N.2     1  UNL1       -0.0306
      8 C         140.3027  143.6614  170.0861 C.2     1  UNL1        0.2361
      9 C         140.8502  143.2331  168.7569 C.2     1  UNL1        0.0583
     10 C         141.4236  141.8559  168.9138 C.2     1  UNL1        0.1203
     11 C         142.0967  140.9322  167.9424 C.3     1  UNL1        0.2596
     12 N         142.4241  141.0733  166.4853 N.pl3   1  UNL1       -0.1887
     13 C         142.1223  142.2644  165.6252 C.3     1  UNL1        0.1606
     14 C         143.2423  143.1092  165.0942 C.3     1  UNL1        0.0480
     15 C         142.9405  144.3005  164.2340 C.3     1  UNL1        0.0198
     16 C         141.5186  144.6468  163.9047 C.3     1  UNL1        0.0545
     17 C         140.3986  143.8021  164.4357 C.3     1  UNL1        0.0198
     18 C         140.7004  142.6109  165.2959 C.3     1  UNL1        0.0480
     19 N         141.2169  145.8380  163.0446 N.3     1  UNL1       -0.2914
     20 H         142.0656  146.0430  162.5172 H       1  UNL1        0.1235
     21 C         140.0936  145.7812  162.0521 C.3     1  UNL1        0.1731
     22 C         140.1526  144.8140  160.9071 C.3     1  UNL1        0.4118
     23 F         140.2118  143.8468  159.7621 F       1  UNL1       -0.1685
     24 F         141.2930  145.5866  160.3133 F       1  UNL1       -0.1685
     25 F         139.0122  144.0413  161.5009 F       1  UNL1       -0.1685
     26 C         144.9946  139.9322  164.2590 C.3     1  UNL1        0.0450
     27 C         143.6065  139.5247  164.6553 C.3     1  UNL1        0.2165
     28 O         142.7185  138.8280  163.6673 O.3     1  UNL1       -0.3737
     29 H         141.8624  138.6362  164.0811 H       1  UNL1        0.2111
@<TRIPOS>BOND
     1    27    26    1
     2    27    28    1
     3    27     1    1
     4     1     2    2
     5     2     3    1
     6     3     4    2
     7     4     5    1
     8     5     6    2
     9     6     7    1
    10     7     8    2
    11     8     9    1
    12     9    10    2
    13    10    11    1
    14    11    12    1
    15    13    12    1
    16    13    14    1
    17    14    15    1
    18    15    16    1
    19    16    19    1
    20    19    21    1
    21    21    22    1
    22    22    23    1
    23    22    24    1
    24    22    25    1
    25    16    17    1
    26    17    18    1
    27    12     1    1
    28    18    13    1
    29    11     3    1
    30    10     6    1
    31    28    29    1
    32    19    20    1
@<TRIPOS>MOLECULE
*****
 29 32 0 0 0
SMALL
GASTEIGER

@<TRIPOS>ATOM
      1 C         141.1529  139.3047  162.4656 C.2     1  UNL1        0.3270
      2 N         141.5232  139.7532  161.0829 N.2     1  UNL1       -0.0380
      3 C         142.1807  141.0970  161.1920 C.2     1  UNL1        0.2637
      4 C         142.7511  142.0221  160.1583 C.2     1  UNL1        0.2821
      5 N         143.3577  143.3294  160.5746 N.2     1  UNL1       -0.0268
      6 C         143.3937  143.7114  162.0247 C.2     1  UNL1        0.3760
      7 N         143.9228  144.9249  162.7301 N.2     1  UNL1       -0.0306
      8 C         143.6793  144.7497  164.1998 C.2     1  UNL1        0.2361
      9 C         142.9997  143.4279  164.4027 C.2     1  UNL1        0.0583
     10 C         142.8232  142.7863  163.0584 C.2     1  UNL1        0.1203
     11 C         142.2167  141.4791  162.6421 C.3     1  UNL1        0.2596
     12 N         141.5815  140.3713  163.4292 N.pl3   1  UNL1       -0.1887
     13 C         141.4057  140.3364  164.9184 C.3     1  UNL1        0.1606
     14 C         140.0801  140.6884  165.5257 C.3     1  UNL1        0.0480
     15 C         139.9044  140.6535  167.0150 C.3     1  UNL1        0.0198
     16 C         141.0543  140.2665  167.8970 C.3     1  UNL1        0.0545
     17 C         142.3799  139.9145  167.2897 C.3     1  UNL1        0.0198
     18 C         142.5557  139.9494  165.8005 C.3     1  UNL1        0.0480
     19 N         140.8785  140.2316  169.3862 N.3     1  UNL1       -0.2914
     20 H         141.4309  139.4458  169.7295 H       1  UNL1        0.1235
     21 C         141.2589  141.4229  170.2145 C.3     1  UNL1        0.1731
     22 C         140.7458  142.7845  169.8499 C.3     1  UNL1        0.4118
     23 F         140.2327  144.1460  169.4853 F       1  UNL1       -0.1685
     24 F         139.3574  142.3630  170.2300 F       1  UNL1       -0.1685
     25 F         142.1344  143.2060  169.4698 F       1  UNL1       -0.1685
     26 C         138.9984  137.9960  163.0944 C.3     1  UNL1        0.0450
     27 C         140.4734  138.0158  162.8220 C.3     1  UNL1        0.2165
     28 O         141.2688  136.7469  162.9060 O.3     1  UNL1       -0.3737
     29 H         142.1986  136.9340  162.7028 H       1  UNL1        0.2111
@<TRIPOS>BOND
     1    27    26    1
     2    27    28    1
     3    27     1    1
     4     1     2    2
     5     2     3    1
     6     3     4    2
     7     4     5    1
     8     5     6    2
     9     6     7    1
    10     7     8    2
    11     8     9    1
    12     9    10    2
    13    10    11    1
    14    11    12    1
    15    13    12    1
    16    13    14    1
    17    14    15    1
    18    15    16    1
    19    16    19    1
    20    19    21    1
    21    21    22    1
    22    22    23    1
    23    22    24    1
    24    22    25    1
    25    16    17    1
    26    17    18    1
    27    12     1    1
    28    18    13    1
    29    11     3    1
    30    10     6    1
    31    28    29    1
    32    19    20    1
@<TRIPOS>MOLECULE
*****
 29 32 0 0 0
SMALL
GASTEIGER

@<TRIPOS>ATOM
      1 C         141.6162  143.4219  163.1562 C.2     1  UNL1        0.3270
      2 N         141.2374  142.9556  161.7818 N.2     1  UNL1       -0.0380
      3 C         140.6324  141.5887  161.9064 C.2     1  UNL1        0.2637
      4 C         140.0776  140.6398  160.8858 C.2     1  UNL1        0.2821
      5 N         139.5278  139.3123  161.3165 N.2     1  UNL1       -0.0268
      6 C         139.5328  138.9337  162.7679 C.2     1  UNL1        0.3760
      7 N         139.0622  137.7037  163.4860 N.2     1  UNL1       -0.0306
      8 C         139.3262  137.8925  164.9505 C.2     1  UNL1        0.2361
      9 C         139.9599  139.2391  165.1375 C.2     1  UNL1        0.0583
     10 C         140.0876  139.8827  163.7886 C.2     1  UNL1        0.1203
     11 C         140.6374  141.2101  163.3578 C.3     1  UNL1        0.2596
     12 N         141.2454  142.3431  164.1303 N.pl3   1  UNL1       -0.1887
     13 C         141.4473  142.3892  165.6159 C.3     1  UNL1        0.1606
     14 C         140.2946  142.7125  166.5197 C.3     1  UNL1        0.0480
     15 C         140.4965  142.7586  168.0054 C.3     1  UNL1        0.0198
     16 C         141.8510  142.4814  168.5872 C.3     1  UNL1        0.0545
     17 C         143.0036  142.1581  167.6834 C.3     1  UNL1        0.0198
     18 C         142.8018  142.1120  166.1978 C.3     1  UNL1        0.0480
     19 N         142.0528  142.5276  170.0728 N.3     1  UNL1       -0.2914
     20 H         141.4592  143.2774  170.4274 H       1  UNL1        0.1235
     21 C         141.7634  141.3150  170.9070 C.3     1  UNL1        0.1731
     22 C         142.1258  139.9510  170.3987 C.3     1  UNL1        0.4118
     23 F         142.4881  138.5871  169.8904 F       1  UNL1       -0.1685
     24 F         140.6703  139.6085  170.2801 F       1  UNL1       -0.1685
     25 F         143.5814  140.2935  170.5173 F       1  UNL1       -0.1685
     26 C         143.7032  144.7896  163.8799 C.3     1  UNL1        0.0450
     27 C         142.2540  144.7361  163.4968 C.3     1  UNL1        0.2165
     28 O         141.4424  145.9969  163.4543 O.3     1  UNL1       -0.3737
     29 H         140.5328  145.7872  163.1904 H       1  UNL1        0.2111
@<TRIPOS>BOND
     1    27    26    1
     2    27    28    1
     3    27     1    1
     4     1     2    2
     5     2     3    1
     6     3     4    2
     7     4     5    1
     8     5     6    2
     9     6     7    1
    10     7     8    2
    11     8     9    1
    12     9    10    2
    13    10    11    1
    14    11    12    1
    15    13    12    1
    16    13    14    1
    17    14    15    1
    18    15    16    1
    19    16    19    1
    20    19    21    1
    21    21    22    1
    22    22    23    1
    23    22    24    1
    24    22    25    1
    25    16    17    1
    26    17    18    1
    27    12     1    1
    28    18    13    1
    29    11     3    1
    30    10     6    1
    31    28    29    1
    32    19    20    1
@<TRIPOS>MOLECULE
*****
 29 32 0 0 0
SMALL
GASTEIGER

@<TRIPOS>ATOM
      1 C         142.1693  143.1105  162.4949 C.2     1  UNL1        0.3270
      2 N         142.1705  142.4946  161.1272 N.2     1  UNL1       -0.0380
      3 C         141.9060  141.0259  161.2799 C.2     1  UNL1        0.2637
      4 C         141.7938  139.9166  160.2766 C.2     1  UNL1        0.2821
      5 N         141.5170  138.5155  160.7354 N.2     1  UNL1       -0.0268
      6 C         141.3523  138.2239  162.1975 C.2     1  UNL1        0.3760
      7 N         141.0752  136.9516  162.9421 N.2     1  UNL1       -0.0306
      8 C         141.0161  137.2747  164.4057 C.2     1  UNL1        0.2361
      9 C         141.2567  138.7466  164.5656 C.2     1  UNL1        0.0583
     10 C         141.4645  139.3333  163.2008 C.2     1  UNL1        0.1203
     11 C         141.7413  140.7343  162.7421 C.3     1  UNL1        0.2596
     12 N         141.9040  142.0226  163.4929 N.pl3   1  UNL1       -0.1887
     13 C         141.8169  142.1931  164.9806 C.3     1  UNL1        0.1606
     14 C         143.0252  141.9502  165.8355 C.3     1  UNL1        0.0480
     15 C         142.9380  142.1207  167.3233 C.3     1  UNL1        0.0198
     16 C         141.6424  142.5341  167.9561 C.3     1  UNL1        0.0545
     17 C         140.4340  142.7770  167.1012 C.3     1  UNL1        0.0198
     18 C         140.5212  142.6065  165.6135 C.3     1  UNL1        0.0480
     19 N         141.5552  142.7046  169.4438 N.3     1  UNL1       -0.2914
     20 H         140.9082  143.4744  169.6145 H       1  UNL1        0.1235
     21 C         141.1051  141.5616  170.3046 C.3     1  UNL1        0.1731
     22 C         139.7620  140.9339  170.0758 C.3     1  UNL1        0.4118
     23 F         138.4190  140.3063  169.8470 F       1  UNL1       -0.1685
     24 F         139.0951  142.2228  170.4552 F       1  UNL1       -0.1685
     25 F         140.4290  139.6450  169.6964 F       1  UNL1       -0.1685
     26 C         141.2509  145.4121  163.2754 C.3     1  UNL1        0.0450
     27 C         142.3939  144.5599  162.8093 C.3     1  UNL1        0.2165
     28 O         143.7615  145.1570  162.6575 O.3     1  UNL1       -0.3737
     29 H         144.3795  144.4756  162.3501 H       1  UNL1        0.2111
@<TRIPOS>BOND
     1    27    26    1
     2    27    28    1
     3    27     1    1
     4     1     2    2
     5     2     3    1
     6     3     4    2
     7     4     5    1
     8     5     6    2
     9     6     7    1
    10     7     8    2
    11     8     9    1
    12     9    10    2
    13    10    11    1
    14    11    12    1
    15    13    12    1
    16    13    14    1
    17    14    15    1
    18    15    16    1
    19    16    19    1
    20    19    21    1
    21    21    22    1
    22    22    23    1
    23    22    24    1
    24    22    25    1
    25    16    17    1
    26    17    18    1
    27    12     1    1
    28    18    13    1
    29    11     3    1
    30    10     6    1
    31    28    29    1
    32    19    20    1
@<TRIPOS>MOLECULE
*****
 29 32 0 0 0
SMALL
GASTEIGER

@<TRIPOS>ATOM
      1 C         138.6447  140.0152  164.2839 C.2     1  UNL1        0.3270
      2 N         137.9120  140.2739  163.0009 N.2     1  UNL1       -0.0380
      3 C         138.4155  141.5674  162.4322 C.2     1  UNL1        0.2637
      4 C         138.0583  142.3227  161.1865 C.2     1  UNL1        0.2821
      5 N         138.7450  143.6188  160.8723 N.2     1  UNL1       -0.0268
      6 C         139.7890  144.1594  161.8039 C.2     1  UNL1        0.3760
      7 N         140.6289  145.4014  161.7580 N.2     1  UNL1       -0.0306
      8 C         141.5052  145.4136  162.9753 C.2     1  UNL1        0.2361
      9 C         141.2069  144.1792  163.7736 C.2     1  UNL1        0.0583
     10 C         140.1462  143.4041  163.0496 C.2     1  UNL1        0.1203
     11 C         139.4594  142.1080  163.3638 C.3     1  UNL1        0.2596
     12 N         139.6011  141.1487  164.5082 N.pl3   1  UNL1       -0.1887
     13 C         140.5351  141.2969  165.6725 C.3     1  UNL1        0.1606
     14 C         141.7707  140.4504  165.7553 C.3     1  UNL1        0.0480
     15 C         142.7047  140.5987  166.9197 C.3     1  UNL1        0.0198
     16 C         142.4032  141.5934  168.0011 C.3     1  UNL1        0.0545
     17 C         141.1677  142.4399  167.9183 C.3     1  UNL1        0.0198
     18 C         140.2337  142.2917  166.7540 C.3     1  UNL1        0.0480
     19 N         143.3373  141.7416  169.1654 N.3     1  UNL1       -0.2914
     20 H         143.2442  142.7017  169.4972 H       1  UNL1        0.1235
     21 C         143.1882  140.8527  170.3643 C.3     1  UNL1        0.1731
     22 C         141.8312  140.6148  170.9576 C.3     1  UNL1        0.4118
     23 F         140.4742  140.3769  171.5508 F       1  UNL1       -0.1685
     24 F         141.8667  141.9767  171.5851 F       1  UNL1       -0.1685
     25 F         141.7956  139.2528  170.3300 F       1  UNL1       -0.1685
     26 C         139.1472  137.5362  164.8776 C.3     1  UNL1        0.0450
     27 C         138.4544  138.8308  165.1845 C.3     1  UNL1        0.2165
     28 O         137.5714  138.9410  166.3920 O.3     1  UNL1       -0.3737
     29 H         137.2042  139.8373  166.4433 H       1  UNL1        0.2111
@<TRIPOS>BOND
     1    27    26    1
     2    27    28    1
     3    27     1    1
     4     1     2    2
     5     2     3    1
     6     3     4    2
     7     4     5    1
     8     5     6    2
     9     6     7    1
    10     7     8    2
    11     8     9    1
    12     9    10    2
    13    10    11    1
    14    11    12    1
    15    13    12    1
    16    13    14    1
    17    14    15    1
    18    15    16    1
    19    16    19    1
    20    19    21    1
    21    21    22    1
    22    22    23    1
    23    22    24    1
    24    22    25    1
    25    16    17    1
    26    17    18    1
    27    12     1    1
    28    18    13    1
    29    11     3    1
    30    10     6    1
    31    28    29    1
    32    19    20    1
@<TRIPOS>MOLECULE
*****
 29 32 0 0 0
SMALL
GASTEIGER

@<TRIPOS>ATOM
      1 C         143.9606  141.3092  162.8141 C.2     1  UNL1        0.3270
      2 N         143.9361  141.1533  161.3225 N.2     1  UNL1       -0.0380
      3 C         142.7261  140.3438  160.9608 C.2     1  UNL1        0.2637
      4 C         142.1895  139.8759  159.6406 C.2     1  UNL1        0.2821
      5 N         140.9295  139.0635  159.5885 N.2     1  UNL1       -0.0268
      6 C         140.2063  138.7191  160.8566 C.2     1  UNL1        0.3760
      7 N         138.9515  137.9393  161.1164 N.2     1  UNL1       -0.0306
      8 C         138.7127  137.9254  162.5972 C.2     1  UNL1        0.2361
      9 C         139.8198  138.6965  163.2526 C.2     1  UNL1        0.0583
     10 C         140.7429  139.1871  162.1769 C.2     1  UNL1        0.1203
     11 C         142.0028  139.9995  162.2289 C.3     1  UNL1        0.2596
     12 N         142.7658  140.5961  163.3744 N.pl3   1  UNL1       -0.1887
     13 C         142.3984  140.4970  164.8253 C.3     1  UNL1        0.1606
     14 C         143.0881  139.4986  165.7071 C.3     1  UNL1        0.0480
     15 C         142.7207  139.3995  167.1581 C.3     1  UNL1        0.0198
     16 C         141.6637  140.2988  167.7272 C.3     1  UNL1        0.0545
     17 C         140.9740  141.2971  166.8454 C.3     1  UNL1        0.0198
     18 C         141.3414  141.3963  165.3945 C.3     1  UNL1        0.0480
     19 N         141.2964  140.1997  169.1781 N.3     1  UNL1       -0.2914
     20 H         141.6738  139.3149  169.5176 H       1  UNL1        0.1235
     21 C         141.7458  141.2596  170.1397 C.3     1  UNL1        0.1731
     22 C         143.0846  141.9129  169.9638 C.3     1  UNL1        0.4118
     23 F         144.4233  142.5662  169.7878 F       1  UNL1       -0.1685
     24 F         142.4089  143.1839  169.5419 F       1  UNL1       -0.1685
     25 F         143.7603  140.6418  170.3856 F       1  UNL1       -0.1685
     26 C         144.5783  143.0534  164.6379 C.3     1  UNL1        0.0450
     27 C         144.9978  142.0484  163.6064 C.3     1  UNL1        0.2165
     28 O         146.4545  141.7826  163.3671 O.3     1  UNL1       -0.3737
     29 H         146.5511  141.1114  162.6736 H       1  UNL1        0.2111
@<TRIPOS>BOND
     1    27    26    1
     2    27    28    1
     3    27     1    1
     4     1     2    2
     5     2     3    1
     6     3     4    2
     7     4     5    1
     8     5     6    2
     9     6     7    1
    10     7     8    2
    11     8     9    1
    12     9    10    2
    13    10    11    1
    14    11    12    1
    15    13    12    1
    16    13    14    1
    17    14    15    1
    18    15    16    1
    19    16    19    1
    20    19    21    1
    21    21    22    1
    22    22    23    1
    23    22    24    1
    24    22    25    1
    25    16    17    1
    26    17    18    1
    27    12     1    1
    28    18    13    1
    29    11     3    1
    30    10     6    1
    31    28    29    1
    32    19    20    1
