@<TRIPOS>MOLECULE
*****
 41 44 0 0 0
SMALL
GASTEIGER

@<TRIPOS>ATOM
      1 N         139.0409  139.3000  164.2254 N.ar    1  UNL1       -0.3123
      2 C         139.2028  139.0867  165.7013 C.ar    1  UNL1        0.0961
      3 C         139.7455  140.3525  166.2958 C.ar    1  UNL1        0.0997
      4 N         139.9189  141.3481  165.1874 N.ar    1  UNL1       -0.2309
      5 C         139.4834  140.6977  163.9078 C.ar    1  UNL1        0.1200
      6 C         140.0595  140.5823  167.7445 C.ar    1  UNL1        0.0193
      7 C         139.1447  140.0446  168.8047 C.ar    1  UNL1        0.0038
      8 C         139.4588  140.2744  170.2533 C.ar    1  UNL1        0.0296
      9 C         140.6877  141.0418  170.6417 C.ar    1  UNL1        0.1440
     10 F         141.0018  141.2716  172.0904 F       1  UNL1       -0.2042
     11 C         141.6026  141.5794  169.5815 C.ar    1  UNL1        0.0988
     12 C         141.2885  141.3497  168.1329 C.ar    1  UNL1        0.0077
     13 C         142.8315  142.3468  169.9700 C.3     1  UNL1        0.4207
     14 F         144.0604  143.1142  170.3584 F       1  UNL1       -0.1658
     15 F         143.6351  141.0810  169.9283 F       1  UNL1       -0.1658
     16 F         142.0278  143.6127  170.0116 F       1  UNL1       -0.1658
     17 C         139.4894  141.3333  162.5491 C.3     1  UNL1        0.0603
     18 C         138.2325  141.9395  161.9991 C.3     1  UNL1        0.0290
     19 C         138.2385  142.5751  160.6404 C.3     1  UNL1        0.0926
     20 N         139.5014  142.6044  159.8318 N.pl3   1  UNL1       -0.2930
     21 C         140.7585  141.9982  160.3818 C.3     1  UNL1        0.0926
     22 C         140.7524  141.3627  161.7404 C.3     1  UNL1        0.0290
     23 C         139.5075  143.2400  158.4731 C.ar    1  UNL1        0.1405
     24 N         139.0468  142.4595  157.2779 N.ar    1  UNL1       -0.2088
     25 C         139.0529  143.0950  155.9192 C.ar    1  UNL1        0.2012
     26 N         139.5195  144.5113  155.7558 N.ar    1  UNL1       -0.2092
     27 C         139.9802  145.2918  156.9510 C.ar    1  UNL1        0.1342
     28 N         140.4468  146.7080  156.7875 N.pl3   1  UNL1       -0.3424
     29 C         139.9741  144.6562  158.3097 C.ar    1  UNL1        0.1157
     30 H         140.4508  147.1251  155.8958 H       1  UNL1        0.1437
     31 H         140.7491  147.2203  157.5719 H       1  UNL1        0.1437
     32 C         140.4348  145.4368  159.5049 C.2     1  UNL1        0.2482
     33 N         141.8846  145.4332  159.8897 N.am    1  UNL1       -0.3252
     34 O         139.4456  146.2209  160.3153 O.2     1  UNL1       -0.2702
     35 H         142.5338  144.9186  159.3578 H       1  UNL1        0.1453
     36 H         142.1869  145.9455  160.6741 H       1  UNL1        0.1453
     37 C         138.5267  138.2926  163.2402 C.3     1  UNL1        0.1245
     38 C         139.3963  137.8438  162.1034 C.3     1  UNL1        0.0970
     39 C         141.8569  137.8412  161.2693 C.3     1  UNL1        0.0897
     40 N         140.8480  137.5497  162.3404 N.3     1  UNL1       -0.2687
     41 C         141.2907  136.9642  163.6485 C.3     1  UNL1        0.0897
@<TRIPOS>BOND
     1    39    40    1
     2    40    41    1
     3    40    38    1
     4    38    37    1
     5    37     1    1
     6     1     2   ar
     7     2     3   ar
     8     3     6    1
     9     6     7   ar
    10     7     8   ar
    11     8     9   ar
    12     9    10    1
    13     9    11   ar
    14    11    13    1
    15    13    14    1
    16    13    15    1
    17    13    16    1
    18    11    12   ar
    19     3     4   ar
    20     4     5   ar
    21     5    17    1
    22    17    18    1
    23    18    19    1
    24    19    20    1
    25    20    23    1
    26    23    24   ar
    27    24    25   ar
    28    25    26   ar
    29    26    27   ar
    30    27    28    1
    31    27    29   ar
    32    29    32    1
    33    32    33   am
    34    32    34    2
    35    20    21    1
    36    21    22    1
    37     5     1   ar
    38    22    17    1
    39    12     6   ar
    40    29    23   ar
    41    28    30    1
    42    28    31    1
    43    33    35    1
    44    33    36    1
@<TRIPOS>MOLECULE
*****
 41 44 0 0 0
SMALL
GASTEIGER

@<TRIPOS>ATOM
      1 N         141.1525  142.3751  162.8921 N.ar    1  UNL1       -0.3123
      2 C         140.8947  142.7016  164.3332 C.ar    1  UNL1        0.0961
      3 C         141.1090  141.4533  165.1368 C.ar    1  UNL1        0.0997
      4 N         141.4992  140.3553  164.1923 N.ar    1  UNL1       -0.2309
      5 C         141.5261  140.9250  162.8050 C.ar    1  UNL1        0.1200
      6 C         140.9593  141.3255  166.6239 C.ar    1  UNL1        0.0193
      7 C         139.9465  140.3791  167.1972 C.ar    1  UNL1        0.0038
      8 C         139.7969  140.2514  168.6842 C.ar    1  UNL1        0.0296
      9 C         140.6600  141.0699  169.5979 C.ar    1  UNL1        0.1440
     10 F         140.5103  140.9421  171.0850 F       1  UNL1       -0.2042
     11 C         141.6728  142.0162  169.0247 C.ar    1  UNL1        0.0988
     12 C         141.8225  142.1440  167.5377 C.ar    1  UNL1        0.0077
     13 C         142.5360  142.8348  169.9384 C.3     1  UNL1        0.4207
     14 F         143.3991  143.6533  170.8522 F       1  UNL1       -0.1658
     15 F         143.6018  141.7812  169.8754 F       1  UNL1       -0.1658
     16 F         141.4701  143.8883  170.0015 F       1  UNL1       -0.1658
     17 C         141.8668  140.1760  161.5508 C.3     1  UNL1        0.0603
     18 C         140.8125  139.9350  160.5114 C.3     1  UNL1        0.0290
     19 C         141.1532  139.1860  159.2572 C.3     1  UNL1        0.0926
     20 N         142.5482  138.6782  159.0424 N.pl3   1  UNL1       -0.2930
     21 C         143.6025  138.9193  160.0819 C.3     1  UNL1        0.0926
     22 C         143.2618  139.6682  161.3360 C.3     1  UNL1        0.0290
     23 C         142.8888  137.9293  157.7882 C.ar    1  UNL1        0.1405
     24 N         142.5727  136.4671  157.6784 N.ar    1  UNL1       -0.2088
     25 C         142.9133  135.7182  156.4242 C.ar    1  UNL1        0.2012
     26 N         143.5703  136.4315  155.2797 N.ar    1  UNL1       -0.2092
     27 C         143.8865  137.8936  155.3895 C.ar    1  UNL1        0.1342
     28 N         144.5433  138.6069  154.2450 N.pl3   1  UNL1       -0.3424
     29 C         143.5458  138.6426  156.6437 C.ar    1  UNL1        0.1157
     30 H         144.7669  138.1153  153.4219 H       1  UNL1        0.1437
     31 H         144.7509  139.5665  154.3170 H       1  UNL1        0.1437
     32 C         143.8620  140.1047  156.7535 C.2     1  UNL1        0.2482
     33 N         145.2338  140.5462  157.1697 N.am    1  UNL1       -0.3252
     34 O         142.8063  141.1254  156.4470 O.2     1  UNL1       -0.2702
     35 H         145.9266  139.8763  157.3708 H       1  UNL1        0.1453
     36 H         145.4413  141.5059  157.2417 H       1  UNL1        0.1453
     37 C         141.0540  143.3309  161.7402 C.3     1  UNL1        0.1245
     38 C         142.1304  144.3519  161.5186 C.3     1  UNL1        0.0970
     39 C         144.4630  143.2261  161.7223 C.3     1  UNL1        0.0897
     40 N         143.4499  144.2146  162.2187 N.3     1  UNL1       -0.2687
     41 C         143.7562  145.0659  163.4151 C.3     1  UNL1        0.0897
@<TRIPOS>BOND
     1    39    40    1
     2    40    41    1
     3    40    38    1
     4    38    37    1
     5    37     1    1
     6     1     2   ar
     7     2     3   ar
     8     3     6    1
     9     6     7   ar
    10     7     8   ar
    11     8     9   ar
    12     9    10    1
    13     9    11   ar
    14    11    13    1
    15    13    14    1
    16    13    15    1
    17    13    16    1
    18    11    12   ar
    19     3     4   ar
    20     4     5   ar
    21     5    17    1
    22    17    18    1
    23    18    19    1
    24    19    20    1
    25    20    23    1
    26    23    24   ar
    27    24    25   ar
    28    25    26   ar
    29    26    27   ar
    30    27    28    1
    31    27    29   ar
    32    29    32    1
    33    32    33   am
    34    32    34    2
    35    20    21    1
    36    21    22    1
    37     5     1   ar
    38    22    17    1
    39    12     6   ar
    40    29    23   ar
    41    28    30    1
    42    28    31    1
    43    33    35    1
    44    33    36    1
@<TRIPOS>MOLECULE
*****
 41 44 0 0 0
SMALL
GASTEIGER

@<TRIPOS>ATOM
      1 N         142.0110  139.4173  163.6683 N.ar    1  UNL1       -0.3123
      2 C         142.2468  139.1840  165.1311 C.ar    1  UNL1        0.0961
      3 C         141.7117  140.3675  165.8815 C.ar    1  UNL1        0.0997
      4 N         141.1452  141.3323  164.8823 N.ar    1  UNL1       -0.2309
      5 C         141.3302  140.7450  163.5145 C.ar    1  UNL1        0.1200
      6 C         141.7383  140.5535  167.3697 C.ar    1  UNL1        0.0193
      7 C         142.5155  139.6023  168.2306 C.ar    1  UNL1        0.0038
      8 C         142.5421  139.7884  169.7188 C.ar    1  UNL1        0.0296
      9 C         141.7917  140.9257  170.3460 C.ar    1  UNL1        0.1440
     10 F         141.8183  141.1117  171.8342 F       1  UNL1       -0.2042
     11 C         141.0145  141.8769  169.4851 C.ar    1  UNL1        0.0988
     12 C         140.9879  141.6908  167.9969 C.ar    1  UNL1        0.0077
     13 C         140.2641  143.0142  170.1123 C.3     1  UNL1        0.4207
     14 F         139.5136  144.1514  170.7395 F       1  UNL1       -0.1658
     15 F         141.4534  143.9070  169.9165 F       1  UNL1       -0.1658
     16 F         139.0747  142.1214  170.3081 F       1  UNL1       -0.1658
     17 C         140.9084  141.3749  162.2201 C.3     1  UNL1        0.0603
     18 C         141.9162  141.5999  161.1321 C.3     1  UNL1        0.0290
     19 C         141.4944  142.2298  159.8377 C.3     1  UNL1        0.0926
     20 N         140.0650  142.6347  159.6315 N.pl3   1  UNL1       -0.2930
     21 C         139.0572  142.4098  160.7196 C.3     1  UNL1        0.0926
     22 C         139.4790  141.7799  162.0138 C.3     1  UNL1        0.0290
     23 C         139.6432  143.2646  158.3371 C.ar    1  UNL1        0.1405
     24 N         138.8846  142.4601  157.3236 N.ar    1  UNL1       -0.2088
     25 C         138.4628  143.0900  156.0292 C.ar    1  UNL1        0.2012
     26 N         138.7997  144.5245  155.7484 N.ar    1  UNL1       -0.2092
     27 C         139.5583  145.3290  156.7619 C.ar    1  UNL1        0.1342
     28 N         139.8952  146.7635  156.4810 N.pl3   1  UNL1       -0.3424
     29 C         139.9801  144.6991  158.0563 C.ar    1  UNL1        0.1157
     30 H         139.6184  147.1769  155.6315 H       1  UNL1        0.1437
     31 H         140.3931  147.2915  157.1462 H       1  UNL1        0.1437
     32 C         140.7387  145.5037  159.0698 C.2     1  UNL1        0.2482
     33 N         140.0970  145.8585  160.3783 N.am    1  UNL1       -0.3252
     34 O         142.1390  145.9533  158.7747 O.2     1  UNL1       -0.2702
     35 H         139.1780  145.5634  160.5719 H       1  UNL1        0.1453
     36 H         140.5949  146.3866  161.0435 H       1  UNL1        0.1453
     37 C         142.3896  138.4863  162.5547 C.3     1  UNL1        0.1245
     38 C         141.4121  137.4549  162.0744 C.3     1  UNL1        0.0970
     39 C         139.5438  138.3619  160.5133 C.3     1  UNL1        0.0897
     40 N         139.9776  137.8296  161.8469 N.3     1  UNL1       -0.2687
     41 C         138.9769  137.6720  162.9531 C.3     1  UNL1        0.0897
@<TRIPOS>BOND
     1    39    40    1
     2    40    41    1
     3    40    38    1
     4    38    37    1
     5    37     1    1
     6     1     2   ar
     7     2     3   ar
     8     3     6    1
     9     6     7   ar
    10     7     8   ar
    11     8     9   ar
    12     9    10    1
    13     9    11   ar
    14    11    13    1
    15    13    14    1
    16    13    15    1
    17    13    16    1
    18    11    12   ar
    19     3     4   ar
    20     4     5   ar
    21     5    17    1
    22    17    18    1
    23    18    19    1
    24    19    20    1
    25    20    23    1
    26    23    24   ar
    27    24    25   ar
    28    25    26   ar
    29    26    27   ar
    30    27    28    1
    31    27    29   ar
    32    29    32    1
    33    32    33   am
    34    32    34    2
    35    20    21    1
    36    21    22    1
    37     5     1   ar
    38    22    17    1
    39    12     6   ar
    40    29    23   ar
    41    28    30    1
    42    28    31    1
    43    33    35    1
    44    33    36    1
@<TRIPOS>MOLECULE
*****
 41 44 0 0 0
SMALL
GASTEIGER

@<TRIPOS>ATOM
      1 N         143.5005  139.0773  156.2660 N.ar    1  UNL1       -0.3123
      2 C         143.8880  137.7954  155.5904 C.ar    1  UNL1        0.0961
      3 C         143.0740  136.6891  156.1933 C.ar    1  UNL1        0.0997
      4 N         142.1833  137.2873  157.2416 N.ar    1  UNL1       -0.2309
      5 C         142.4469  138.7633  157.2866 C.ar    1  UNL1        0.1200
      6 C         143.1391  135.2392  155.8144 C.ar    1  UNL1        0.0193
      7 C         142.6544  134.7937  154.4667 C.ar    1  UNL1        0.0038
      8 C         142.7196  133.3438  154.0878 C.ar    1  UNL1        0.0296
      9 C         143.2695  132.3394  155.0568 C.ar    1  UNL1        0.1440
     10 F         143.3347  130.8895  154.6779 F       1  UNL1       -0.2042
     11 C         143.7543  132.7849  156.4045 C.ar    1  UNL1        0.0988
     12 C         143.6891  134.2348  156.7833 C.ar    1  UNL1        0.0077
     13 C         144.3043  131.7806  157.3734 C.3     1  UNL1        0.4207
     14 F         144.8543  130.7762  158.3423 F       1  UNL1       -0.1658
     15 F         145.6729  132.3725  157.2101 F       1  UNL1       -0.1658
     16 F         142.9357  131.1887  157.5367 F       1  UNL1       -0.1658
     17 C         141.7749  139.7517  158.1929 C.3     1  UNL1        0.0603
     18 C         142.0836  139.7537  159.6608 C.3     1  UNL1        0.0290
     19 C         141.4117  140.7422  160.5672 C.3     1  UNL1        0.0926
     20 N         140.4311  141.7285  160.0056 N.pl3   1  UNL1       -0.2930
     21 C         140.1223  141.7265  158.5377 C.3     1  UNL1        0.0926
     22 C         140.7943  140.7381  157.6314 C.3     1  UNL1        0.0290
     23 C         139.7591  142.7169  160.9120 C.ar    1  UNL1        0.1405
     24 N         138.4456  142.3761  161.5511 N.ar    1  UNL1       -0.2088
     25 C         137.7736  143.3645  162.4575 C.ar    1  UNL1        0.2012
     26 N         138.4152  144.6938  162.7247 N.ar    1  UNL1       -0.2092
     27 C         139.7287  145.0347  162.0856 C.ar    1  UNL1        0.1342
     28 N         140.3703  146.3640  162.3529 N.pl3   1  UNL1       -0.3424
     29 C         140.4007  144.0463  161.1793 C.ar    1  UNL1        0.1157
     30 H         139.9292  147.0127  162.9478 H       1  UNL1        0.1437
     31 H         141.2324  146.5877  161.9335 H       1  UNL1        0.1437
     32 C         141.7142  144.3871  160.5402 C.2     1  UNL1        0.2482
     33 N         142.9981  143.9969  161.2106 N.am    1  UNL1       -0.3252
     34 O         141.7439  145.1181  159.2307 O.2     1  UNL1       -0.2702
     35 H         142.9786  143.5171  162.0700 H       1  UNL1        0.1453
     36 H         143.8602  144.2206  160.7911 H       1  UNL1        0.1453
     37 C         144.0670  140.4349  155.9727 C.3     1  UNL1        0.1245
     38 C         145.5071  140.7276  156.2733 C.3     1  UNL1        0.0970
     39 C         147.1895  142.6259  156.8356 C.3     1  UNL1        0.0897
     40 N         145.8746  141.9434  157.0712 N.3     1  UNL1       -0.2687
     41 C         144.9273  142.4767  158.1048 C.3     1  UNL1        0.0897
@<TRIPOS>BOND
     1    39    40    1
     2    40    41    1
     3    40    38    1
     4    38    37    1
     5    37     1    1
     6     1     2   ar
     7     2     3   ar
     8     3     6    1
     9     6     7   ar
    10     7     8   ar
    11     8     9   ar
    12     9    10    1
    13     9    11   ar
    14    11    13    1
    15    13    14    1
    16    13    15    1
    17    13    16    1
    18    11    12   ar
    19     3     4   ar
    20     4     5   ar
    21     5    17    1
    22    17    18    1
    23    18    19    1
    24    19    20    1
    25    20    23    1
    26    23    24   ar
    27    24    25   ar
    28    25    26   ar
    29    26    27   ar
    30    27    28    1
    31    27    29   ar
    32    29    32    1
    33    32    33   am
    34    32    34    2
    35    20    21    1
    36    21    22    1
    37     5     1   ar
    38    22    17    1
    39    12     6   ar
    40    29    23   ar
    41    28    30    1
    42    28    31    1
    43    33    35    1
    44    33    36    1
@<TRIPOS>MOLECULE
*****
 41 44 0 0 0
SMALL
GASTEIGER

@<TRIPOS>ATOM
      1 N         143.0869  139.0219  157.2518 N.ar    1  UNL1       -0.3123
      2 C         143.1052  137.9708  156.1818 C.ar    1  UNL1        0.0961
      3 C         143.0684  136.6284  156.8501 C.ar    1  UNL1        0.0997
      4 N         143.0274  136.8498  158.3331 N.ar    1  UNL1       -0.2309
      5 C         143.0388  138.3290  158.5814 C.ar    1  UNL1        0.1200
      6 C         143.0720  135.2980  156.1570 C.ar    1  UNL1        0.0193
      7 C         142.5183  135.1743  154.7685 C.ar    1  UNL1        0.0038
      8 C         142.5219  133.8440  154.0754 C.ar    1  UNL1        0.0296
      9 C         143.0792  132.6375  154.7709 C.ar    1  UNL1        0.1440
     10 F         143.0828  131.3072  154.0778 F       1  UNL1       -0.2042
     11 C         143.6329  132.7613  156.1594 C.ar    1  UNL1        0.0988
     12 C         143.6293  134.0915  156.8525 C.ar    1  UNL1        0.0077
     13 C         144.1902  131.5547  156.8549 C.3     1  UNL1        0.4207
     14 F         144.7476  130.3482  157.5504 F       1  UNL1       -0.1658
     15 F         145.5786  131.9778  156.4761 F       1  UNL1       -0.1658
     16 F         142.8019  131.1317  157.2337 F       1  UNL1       -0.1658
     17 C         143.0076  138.9980  159.9236 C.3     1  UNL1        0.0603
     18 C         143.9433  138.5498  161.0069 C.3     1  UNL1        0.0290
     19 C         143.9121  139.2188  162.3491 C.3     1  UNL1        0.0926
     20 N         142.9453  140.3360  162.6079 N.pl3   1  UNL1       -0.2930
     21 C         142.0095  140.7843  161.5245 C.3     1  UNL1        0.0926
     22 C         142.0408  140.1153  160.1824 C.3     1  UNL1        0.0290
     23 C         142.9141  141.0050  163.9501 C.ar    1  UNL1        0.1405
     24 N         141.8980  140.5889  164.9721 N.ar    1  UNL1       -0.2088
     25 C         141.8669  141.2579  166.3143 C.ar    1  UNL1        0.2012
     26 N         142.8518  142.3431  166.6345 N.ar    1  UNL1       -0.2092
     27 C         143.8678  142.7592  165.6125 C.ar    1  UNL1        0.1342
     28 N         144.8526  143.8443  165.9327 N.pl3   1  UNL1       -0.3424
     29 C         143.8990  142.0902  164.2703 C.ar    1  UNL1        0.1157
     30 H         144.8322  144.2834  166.8136 H       1  UNL1        0.1437
     31 H         145.5195  144.1175  165.2619 H       1  UNL1        0.1437
     32 C         144.9150  142.5063  163.2483 C.2     1  UNL1        0.2482
     33 N         144.6502  143.6905  162.3665 N.am    1  UNL1       -0.3252
     34 O         146.1958  141.7383  163.1081 O.2     1  UNL1       -0.2702
     35 H         143.8096  144.1946  162.4585 H       1  UNL1        0.1453
     36 H         145.3171  143.9636  161.6957 H       1  UNL1        0.1453
     37 C         143.1123  140.5053  157.0310 C.3     1  UNL1        0.1245
     38 C         144.3511  141.1634  156.4997 C.3     1  UNL1        0.0970
     39 C         144.6636  142.4448  158.7381 C.3     1  UNL1        0.0897
     40 N         145.1933  142.0159  157.4019 N.3     1  UNL1       -0.2687
     41 C         146.5652  142.4395  156.9678 C.3     1  UNL1        0.0897
@<TRIPOS>BOND
     1    39    40    1
     2    40    41    1
     3    40    38    1
     4    38    37    1
     5    37     1    1
     6     1     2   ar
     7     2     3   ar
     8     3     6    1
     9     6     7   ar
    10     7     8   ar
    11     8     9   ar
    12     9    10    1
    13     9    11   ar
    14    11    13    1
    15    13    14    1
    16    13    15    1
    17    13    16    1
    18    11    12   ar
    19     3     4   ar
    20     4     5   ar
    21     5    17    1
    22    17    18    1
    23    18    19    1
    24    19    20    1
    25    20    23    1
    26    23    24   ar
    27    24    25   ar
    28    25    26   ar
    29    26    27   ar
    30    27    28    1
    31    27    29   ar
    32    29    32    1
    33    32    33   am
    34    32    34    2
    35    20    21    1
    36    21    22    1
    37     5     1   ar
    38    22    17    1
    39    12     6   ar
    40    29    23   ar
    41    28    30    1
    42    28    31    1
    43    33    35    1
    44    33    36    1
@<TRIPOS>MOLECULE
*****
 41 44 0 0 0
SMALL
GASTEIGER

@<TRIPOS>ATOM
      1 N         139.2306  140.6771  163.6086 N.ar    1  UNL1       -0.3123
      2 C         139.4943  140.6987  165.0851 C.ar    1  UNL1        0.0961
      3 C         140.5917  141.6876  165.3456 C.ar    1  UNL1        0.0997
      4 N         141.0063  142.2772  164.0301 N.ar    1  UNL1       -0.2309
      5 C         140.1651  141.6527  162.9566 C.ar    1  UNL1        0.1200
      6 C         141.1725  142.0272  166.6863 C.ar    1  UNL1        0.0193
      7 C         142.6541  141.9433  166.9048 C.ar    1  UNL1        0.0038
      8 C         143.2348  142.2829  168.2455 C.ar    1  UNL1        0.0296
      9 C         142.3340  142.7065  169.3676 C.ar    1  UNL1        0.1440
     10 F         142.9148  143.0461  170.7082 F       1  UNL1       -0.2042
     11 C         140.8524  142.7904  169.1490 C.ar    1  UNL1        0.0988
     12 C         140.2717  142.4508  167.8084 C.ar    1  UNL1        0.0077
     13 C         139.9516  143.2140  170.2711 C.3     1  UNL1        0.4207
     14 F         139.0507  143.6376  171.3932 F       1  UNL1       -0.1658
     15 F         139.4622  141.8030  170.4109 F       1  UNL1       -0.1658
     16 F         140.4409  144.6250  170.1313 F       1  UNL1       -0.1658
     17 C         140.2445  141.9513  161.4888 C.3     1  UNL1        0.0603
     18 C         139.3545  142.9983  160.8872 C.3     1  UNL1        0.0290
     19 C         139.4339  143.2969  159.4194 C.3     1  UNL1        0.0926
     20 N         140.4032  142.5486  158.5532 N.pl3   1  UNL1       -0.2930
     21 C         141.2932  141.5016  159.1547 C.3     1  UNL1        0.0926
     22 C         141.2138  141.2030  160.6225 C.3     1  UNL1        0.0290
     23 C         140.4825  142.8473  157.0853 C.ar    1  UNL1        0.1405
     24 N         139.4868  142.2407  156.1416 N.ar    1  UNL1       -0.2088
     25 C         139.5662  142.5394  154.6738 C.ar    1  UNL1        0.2012
     26 N         140.6413  143.4446  154.1497 N.ar    1  UNL1       -0.2092
     27 C         141.6371  144.0512  155.0934 C.ar    1  UNL1        0.1342
     28 N         142.7122  144.9564  154.5692 N.pl3   1  UNL1       -0.3424
     29 C         141.5577  143.7525  156.5612 C.ar    1  UNL1        0.1157
     30 H         142.7643  145.1523  153.6058 H       1  UNL1        0.1437
     31 H         143.3658  145.3545  155.1885 H       1  UNL1        0.1437
     32 C         142.5535  144.3591  157.5049 C.2     1  UNL1        0.2482
     33 N         143.8312  143.6363  157.8133 N.am    1  UNL1       -0.3252
     34 O         142.2715  145.6884  158.1401 O.2     1  UNL1       -0.2702
     35 H         144.0162  142.7639  157.3964 H       1  UNL1        0.1453
     36 H         144.4847  144.0344  158.4327 H       1  UNL1        0.1453
     37 C         138.2115  139.8289  162.9073 C.3     1  UNL1        0.1245
     38 C         138.5382  138.4109  162.5434 C.3     1  UNL1        0.0970
     39 C         141.0298  137.7731  162.1762 C.3     1  UNL1        0.0897
     40 N         139.6814  138.1185  161.6173 N.3     1  UNL1       -0.2687
     41 C         139.4761  138.1717  160.1324 C.3     1  UNL1        0.0897
@<TRIPOS>BOND
     1    39    40    1
     2    40    41    1
     3    40    38    1
     4    38    37    1
     5    37     1    1
     6     1     2   ar
     7     2     3   ar
     8     3     6    1
     9     6     7   ar
    10     7     8   ar
    11     8     9   ar
    12     9    10    1
    13     9    11   ar
    14    11    13    1
    15    13    14    1
    16    13    15    1
    17    13    16    1
    18    11    12   ar
    19     3     4   ar
    20     4     5   ar
    21     5    17    1
    22    17    18    1
    23    18    19    1
    24    19    20    1
    25    20    23    1
    26    23    24   ar
    27    24    25   ar
    28    25    26   ar
    29    26    27   ar
    30    27    28    1
    31    27    29   ar
    32    29    32    1
    33    32    33   am
    34    32    34    2
    35    20    21    1
    36    21    22    1
    37     5     1   ar
    38    22    17    1
    39    12     6   ar
    40    29    23   ar
    41    28    30    1
    42    28    31    1
    43    33    35    1
    44    33    36    1
@<TRIPOS>MOLECULE
*****
 41 44 0 0 0
SMALL
GASTEIGER

@<TRIPOS>ATOM
      1 N         139.5263  140.1686  163.7604 N.ar    1  UNL1       -0.3123
      2 C         139.8849  140.2005  165.2166 C.ar    1  UNL1        0.0961
      3 C         140.6690  141.4532  165.4736 C.ar    1  UNL1        0.0997
      4 N         140.7949  142.1955  164.1763 N.ar    1  UNL1       -0.2309
      5 C         140.0888  141.4016  163.1175 C.ar    1  UNL1        0.1200
      6 C         141.2287  141.8873  166.7959 C.ar    1  UNL1        0.0193
      7 C         142.7115  141.8781  167.0220 C.ar    1  UNL1        0.0038
      8 C         143.2712  142.3122  168.3442 C.ar    1  UNL1        0.0296
      9 C         142.3481  142.7555  169.4402 C.ar    1  UNL1        0.1440
     10 F         142.9079  143.1896  170.7625 F       1  UNL1       -0.2042
     11 C         140.8653  142.7647  169.2141 C.ar    1  UNL1        0.0988
     12 C         140.3056  142.3306  167.8919 C.ar    1  UNL1        0.0077
     13 C         139.9422  143.2081  170.3102 C.3     1  UNL1        0.4207
     14 F         139.0191  143.6514  171.4062 F       1  UNL1       -0.1658
     15 F         140.3717  144.6294  170.0970 F       1  UNL1       -0.1658
     16 F         139.5128  141.7867  170.5233 F       1  UNL1       -0.1658
     17 C         139.9665  141.7752  161.6699 C.3     1  UNL1        0.0603
     18 C         141.1612  141.6818  160.7677 C.3     1  UNL1        0.0290
     19 C         141.0389  142.0553  159.3201 C.3     1  UNL1        0.0926
     20 N         139.7220  142.5222  158.7748 N.pl3   1  UNL1       -0.2930
     21 C         138.5272  142.6156  159.6769 C.3     1  UNL1        0.0926
     22 C         138.6495  142.2421  161.1244 C.3     1  UNL1        0.0290
     23 C         139.5997  142.8957  157.3271 C.ar    1  UNL1        0.1405
     24 N         139.8602  144.3075  156.8923 N.ar    1  UNL1       -0.2088
     25 C         139.7379  144.6810  155.4447 C.ar    1  UNL1        0.2012
     26 N         139.3551  143.6427  154.4319 N.ar    1  UNL1       -0.2092
     27 C         139.0946  142.2310  154.8668 C.ar    1  UNL1        0.1342
     28 N         138.7119  141.1928  153.8541 N.pl3   1  UNL1       -0.3424
     29 C         139.2169  141.8574  156.3144 C.ar    1  UNL1        0.1157
     30 H         138.6317  141.4379  152.9040 H       1  UNL1        0.1437
     31 H         138.5409  140.2662  154.1395 H       1  UNL1        0.1437
     32 C         138.9565  140.4457  156.7493 C.2     1  UNL1        0.2482
     33 N         140.0149  139.3981  156.5693 N.am    1  UNL1       -0.3252
     34 O         137.6376  140.0815  157.3641 O.2     1  UNL1       -0.2702
     35 H         140.8804  139.6372  156.1658 H       1  UNL1        0.1453
     36 H         139.8439  138.4716  156.8547 H       1  UNL1        0.1453
     37 C         138.7429  139.0927  163.0687 C.3     1  UNL1        0.1245
     38 C         139.4549  137.9259  162.4508 C.3     1  UNL1        0.0970
     39 C         139.5854  138.4571  159.9109 C.3     1  UNL1        0.0897
     40 N         140.2661  138.1172  161.2037 N.3     1  UNL1       -0.2687
     41 C         141.7580  137.9687  161.2494 C.3     1  UNL1        0.0897
@<TRIPOS>BOND
     1    39    40    1
     2    40    41    1
     3    40    38    1
     4    38    37    1
     5    37     1    1
     6     1     2   ar
     7     2     3   ar
     8     3     6    1
     9     6     7   ar
    10     7     8   ar
    11     8     9   ar
    12     9    10    1
    13     9    11   ar
    14    11    13    1
    15    13    14    1
    16    13    15    1
    17    13    16    1
    18    11    12   ar
    19     3     4   ar
    20     4     5   ar
    21     5    17    1
    22    17    18    1
    23    18    19    1
    24    19    20    1
    25    20    23    1
    26    23    24   ar
    27    24    25   ar
    28    25    26   ar
    29    26    27   ar
    30    27    28    1
    31    27    29   ar
    32    29    32    1
    33    32    33   am
    34    32    34    2
    35    20    21    1
    36    21    22    1
    37     5     1   ar
    38    22    17    1
    39    12     6   ar
    40    29    23   ar
    41    28    30    1
    42    28    31    1
    43    33    35    1
    44    33    36    1
@<TRIPOS>MOLECULE
*****
 41 44 0 0 0
SMALL
GASTEIGER

@<TRIPOS>ATOM
      1 N         141.4477  142.2647  163.4072 N.ar    1  UNL1       -0.3123
      2 C         141.5583  142.4143  164.8956 C.ar    1  UNL1        0.0961
      3 C         142.1187  141.1379  165.4495 C.ar    1  UNL1        0.0997
      4 N         142.3545  140.1993  164.3034 N.ar    1  UNL1       -0.2309
      5 C         141.9398  140.8957  163.0412 C.ar    1  UNL1        0.1200
      6 C         142.3949  140.8504  166.8956 C.ar    1  UNL1        0.0193
      7 C         142.3473  139.4394  167.4022 C.ar    1  UNL1        0.0038
      8 C         142.6235  139.1521  168.8483 C.ar    1  UNL1        0.0296
      9 C         142.9472  140.2757  169.7877 C.ar    1  UNL1        0.1440
     10 F         143.2234  139.9883  171.2338 F       1  UNL1       -0.2042
     11 C         142.9947  141.6868  169.2811 C.ar    1  UNL1        0.0988
     12 C         142.7186  141.9741  167.8351 C.ar    1  UNL1        0.0077
     13 C         143.3184  142.8104  170.2206 C.3     1  UNL1        0.4207
     14 F         143.6421  143.9341  171.1600 F       1  UNL1       -0.1658
     15 F         144.7806  142.5064  170.0804 F       1  UNL1       -0.1658
     16 F         141.8563  143.1144  170.3608 F       1  UNL1       -0.1658
     17 C         142.0056  140.3236  161.6561 C.3     1  UNL1        0.0603
     18 C         143.0290  140.8299  160.6834 C.3     1  UNL1        0.0290
     19 C         143.0948  140.2578  159.2983 C.3     1  UNL1        0.0926
     20 N         142.1371  139.1795  158.8860 N.pl3   1  UNL1       -0.2930
     21 C         141.1136  138.6731  159.8588 C.3     1  UNL1        0.0926
     22 C         141.0479  139.2452  161.2438 C.3     1  UNL1        0.0290
     23 C         142.2029  138.6074  157.5010 C.ar    1  UNL1        0.1405
     24 N         143.3193  137.6786  157.1254 N.ar    1  UNL1       -0.2088
     25 C         143.3851  137.1065  155.7403 C.ar    1  UNL1        0.2012
     26 N         142.3344  137.4632  154.7308 N.ar    1  UNL1       -0.2092
     27 C         141.2181  138.3920  155.1064 C.ar    1  UNL1        0.1342
     28 N         140.1675  138.7487  154.0969 N.pl3   1  UNL1       -0.3424
     29 C         141.1523  138.9641  156.4915 C.ar    1  UNL1        0.1157
     30 H         140.2107  138.3732  153.1879 H       1  UNL1        0.1437
     31 H         139.4348  139.3583  154.3434 H       1  UNL1        0.1437
     32 C         140.0359  139.8929  156.8671 C.2     1  UNL1        0.2482
     33 N         140.3110  141.3538  157.0674 N.am    1  UNL1       -0.3252
     34 O         138.6444  139.3608  157.0424 O.2     1  UNL1       -0.2702
     35 H         141.2243  141.7030  156.9523 H       1  UNL1        0.1453
     36 H         139.5783  141.9634  157.3139 H       1  UNL1        0.1453
     37 C         140.9351  143.3018  162.4525 C.3     1  UNL1        0.1245
     38 C         140.2684  144.5392  162.9764 C.3     1  UNL1        0.0970
     39 C         138.7857  144.8911  165.0806 C.3     1  UNL1        0.0897
     40 N         138.9354  144.4419  163.6573 N.3     1  UNL1       -0.2687
     41 C         137.7521  143.8953  162.9149 C.3     1  UNL1        0.0897
@<TRIPOS>BOND
     1    39    40    1
     2    40    41    1
     3    40    38    1
     4    38    37    1
     5    37     1    1
     6     1     2   ar
     7     2     3   ar
     8     3     6    1
     9     6     7   ar
    10     7     8   ar
    11     8     9   ar
    12     9    10    1
    13     9    11   ar
    14    11    13    1
    15    13    14    1
    16    13    15    1
    17    13    16    1
    18    11    12   ar
    19     3     4   ar
    20     4     5   ar
    21     5    17    1
    22    17    18    1
    23    18    19    1
    24    19    20    1
    25    20    23    1
    26    23    24   ar
    27    24    25   ar
    28    25    26   ar
    29    26    27   ar
    30    27    28    1
    31    27    29   ar
    32    29    32    1
    33    32    33   am
    34    32    34    2
    35    20    21    1
    36    21    22    1
    37     5     1   ar
    38    22    17    1
    39    12     6   ar
    40    29    23   ar
    41    28    30    1
    42    28    31    1
    43    33    35    1
    44    33    36    1
@<TRIPOS>MOLECULE
*****
 41 44 0 0 0
SMALL
GASTEIGER

@<TRIPOS>ATOM
      1 N         141.4789  142.8478  162.8011 N.ar    1  UNL1       -0.3123
      2 C         141.3607  143.2121  164.2514 C.ar    1  UNL1        0.0961
      3 C         141.7497  142.0126  165.0638 C.ar    1  UNL1        0.0997
      4 N         142.1083  140.9070  164.1157 N.ar    1  UNL1       -0.2309
      5 C         141.9410  141.4231  162.7173 C.ar    1  UNL1        0.1200
      6 C         141.7756  141.9329  166.5616 C.ar    1  UNL1        0.0193
      7 C         143.0189  142.3094  167.3113 C.ar    1  UNL1        0.0038
      8 C         143.0447  142.2296  168.8090 C.ar    1  UNL1        0.0296
      9 C         141.8271  141.7733  169.5568 C.ar    1  UNL1        0.1440
     10 F         141.8529  141.6935  171.0545 F       1  UNL1       -0.2042
     11 C         140.5837  141.3968  168.8070 C.ar    1  UNL1        0.0988
     12 C         140.5580  141.4766  167.3094 C.ar    1  UNL1        0.0077
     13 C         139.3661  140.9405  169.5549 C.3     1  UNL1        0.4207
     14 F         138.1486  140.4842  170.3027 F       1  UNL1       -0.1658
     15 F         139.2937  142.2690  170.2475 F       1  UNL1       -0.1658
     16 F         139.4386  139.6120  168.8622 F       1  UNL1       -0.1658
     17 C         142.1917  140.6503  161.4563 C.3     1  UNL1        0.0603
     18 C         141.0584  140.3572  160.5184 C.3     1  UNL1        0.0290
     19 C         141.3091  139.5844  159.2575 C.3     1  UNL1        0.0926
     20 N         142.6930  139.1047  158.9345 N.pl3   1  UNL1       -0.2930
     21 C         143.8265  139.3978  159.8725 C.3     1  UNL1        0.0926
     22 C         143.5757  140.1706  161.1333 C.3     1  UNL1        0.0290
     23 C         142.9437  138.3319  157.6736 C.ar    1  UNL1        0.1405
     24 N         142.6193  136.8687  157.6137 N.ar    1  UNL1       -0.2088
     25 C         142.8700  136.0959  156.3528 C.ar    1  UNL1        0.2012
     26 N         143.4452  136.7864  155.1517 N.ar    1  UNL1       -0.2092
     27 C         143.7696  138.2497  155.2116 C.ar    1  UNL1        0.1342
     28 N         144.3447  138.9401  154.0105 N.pl3   1  UNL1       -0.3424
     29 C         143.5189  139.0225  156.4725 C.ar    1  UNL1        0.1157
     30 H         144.5092  138.4329  153.1830 H       1  UNL1        0.1437
     31 H         144.5577  139.9005  154.0498 H       1  UNL1        0.1437
     32 C         143.8433  140.4857  156.5324 C.2     1  UNL1        0.2482
     33 N         142.7398  141.5009  156.4913 N.am    1  UNL1       -0.3252
     34 O         145.2713  140.9338  156.6334 O.2     1  UNL1       -0.2702
     35 H         141.8026  141.2067  156.4250 H       1  UNL1        0.1453
     36 H         142.9527  142.4613  156.5306 H       1  UNL1        0.1453
     37 C         141.1864  143.7497  161.6388 C.3     1  UNL1        0.1245
     38 C         139.8696  144.4632  161.5559 C.3     1  UNL1        0.0970
     39 C         137.7911  144.2510  163.1002 C.3     1  UNL1        0.0897
     40 N         138.6063  143.7534  161.9435 N.3     1  UNL1       -0.2687
     41 C         138.1582  142.5461  161.1745 C.3     1  UNL1        0.0897
@<TRIPOS>BOND
     1    39    40    1
     2    40    41    1
     3    40    38    1
     4    38    37    1
     5    37     1    1
     6     1     2   ar
     7     2     3   ar
     8     3     6    1
     9     6     7   ar
    10     7     8   ar
    11     8     9   ar
    12     9    10    1
    13     9    11   ar
    14    11    13    1
    15    13    14    1
    16    13    15    1
    17    13    16    1
    18    11    12   ar
    19     3     4   ar
    20     4     5   ar
    21     5    17    1
    22    17    18    1
    23    18    19    1
    24    19    20    1
    25    20    23    1
    26    23    24   ar
    27    24    25   ar
    28    25    26   ar
    29    26    27   ar
    30    27    28    1
    31    27    29   ar
    32    29    32    1
    33    32    33   am
    34    32    34    2
    35    20    21    1
    36    21    22    1
    37     5     1   ar
    38    22    17    1
    39    12     6   ar
    40    29    23   ar
    41    28    30    1
    42    28    31    1
    43    33    35    1
    44    33    36    1
