@<TRIPOS>MOLECULE
*****
 29 32 0 0 0
SMALL
GASTEIGER

@<TRIPOS>ATOM
      1 C         142.0571  144.6854  163.0276 C.3     1  UNL1        0.1319
      2 C         143.3343  145.1622  163.6532 C.3     1  UNL1        0.0270
      3 N         140.5237  143.0761  164.5122 N.ar    1  UNL1       -0.3137
      4 C         141.4937  143.3462  163.4003 C.ar    1  UNL1        0.1363
      5 N         141.8012  142.0418  162.7266 N.ar    1  UNL1       -0.2280
      6 C         141.0214  140.9656  163.4221 C.ar    1  UNL1        0.1174
      7 C         140.9282  139.4861  163.1930 C.ar    1  UNL1        0.1190
      8 N         140.0455  138.6460  164.0676 N.ar    1  UNL1       -0.2465
      9 C         139.2559  139.2853  165.1712 C.ar    1  UNL1        0.0602
     10 C         139.3491  140.7647  165.4002 C.ar    1  UNL1        0.0335
     11 C         140.2318  141.6049  164.5257 C.ar    1  UNL1        0.0814
     12 C         138.3732  138.4450  166.0458 C.3     1  UNL1        0.0403
     13 C         137.4311  138.3241  167.2067 C.3     1  UNL1        0.0063
     14 C         137.7864  137.1107  166.3997 C.3     1  UNL1        0.0063
     15 C         138.6408  144.7596  165.1210 C.3     1  UNL1        0.0265
     16 C         139.9470  144.0980  165.4467 C.3     1  UNL1        0.1073
     17 N         141.3434  145.5479  162.0293 N.3     1  UNL1       -0.1735
     18 H         142.0240  146.2253  161.6855 H       1  UNL1        0.1492
     19 S         140.7036  144.9267  160.8231 S.O2    1  UNL1        0.0621
     20 O         142.0582  144.7079  160.2173 O.2     1  UNL1       -0.1529
     21 O         139.3490  145.1454  161.4290 O.2     1  UNL1       -0.1529
     22 C         140.0638  144.3055  159.6170 C.ar    1  UNL1        0.1411
     23 C         139.2355  143.0636  159.7633 C.ar    1  UNL1        0.0238
     24 C         138.5957  142.4424  158.5571 C.ar    1  UNL1        0.0310
     25 C         138.7843  143.0631  157.2047 C.ar    1  UNL1        0.1492
     26 N         139.6126  144.3051  157.0584 N.ar    1  UNL1       -0.2321
     27 C         140.2524  144.9263  158.2645 C.ar    1  UNL1        0.1195
     28 C         138.1445  142.4419  155.9985 C.1     1  UNL1        0.1198
     29 N         137.5047  141.8207  154.7924 N.1     1  UNL1       -0.1893
@<TRIPOS>BOND
     1    15    16    1
     2    16     3    1
     3     3     4   ar
     4     4     1    1
     5     1     2    1
     6     1    17    1
     7    17    19    1
     8    19    20    2
     9    19    21    2
    10    19    22    1
    11    22    23   ar
    12    23    24   ar
    13    24    25   ar
    14    25    28    1
    15    28    29    3
    16    25    26   ar
    17    26    27   ar
    18     4     5   ar
    19     5     6   ar
    20     6     7   ar
    21     7     8   ar
    22     8     9   ar
    23     9    12    1
    24    12    13    1
    25    13    14    1
    26     9    10   ar
    27    10    11   ar
    28    11     3   ar
    29    27    22   ar
    30    11     6   ar
    31    14    12    1
    32    17    18    1
@<TRIPOS>MOLECULE
*****
 29 32 0 0 0
SMALL
GASTEIGER

@<TRIPOS>ATOM
      1 C         142.9977  143.9210  162.6974 C.3     1  UNL1        0.1319
      2 C         143.6879  145.0239  163.4437 C.3     1  UNL1        0.0270
      3 N         141.3275  145.0049  160.9140 N.ar    1  UNL1       -0.3137
      4 C         142.5019  144.1559  161.3013 C.ar    1  UNL1        0.1363
      5 N         143.0933  143.5832  160.0475 N.ar    1  UNL1       -0.2280
      6 C         142.2844  144.0782  158.8853 C.ar    1  UNL1        0.1174
      7 C         142.4007  143.8423  157.4085 C.ar    1  UNL1        0.1190
      8 N         141.4256  144.4851  156.4673 N.ar    1  UNL1       -0.2465
      9 C         140.3342  145.3638  157.0029 C.ar    1  UNL1        0.0602
     10 C         140.2179  145.5997  158.4796 C.ar    1  UNL1        0.0335
     11 C         141.1931  144.9569  159.4208 C.ar    1  UNL1        0.0814
     12 C         139.3590  146.0067  156.0616 C.3     1  UNL1        0.0403
     13 C         138.8251  147.2325  155.3818 C.3     1  UNL1        0.0063
     14 C         138.2041  145.8942  155.1112 C.3     1  UNL1        0.0063
     15 C         139.1998  145.1294  162.3998 C.3     1  UNL1        0.0265
     16 C         140.4427  145.7680  161.8547 C.3     1  UNL1        0.1073
     17 N         142.8035  142.5830  163.3470 N.3     1  UNL1       -0.1735
     18 H         143.6760  142.0683  163.2278 H       1  UNL1        0.1492
     19 S         142.4473  142.5003  164.8018 S.O2    1  UNL1        0.0621
     20 O         141.0636  142.9887  164.4908 O.2     1  UNL1       -0.1529
     21 O         143.8311  142.0118  165.1128 O.2     1  UNL1       -0.1529
     22 C         142.0912  142.4175  166.2565 C.ar    1  UNL1        0.1411
     23 C         143.1738  142.3044  167.2885 C.ar    1  UNL1        0.0238
     24 C         142.8177  142.2217  168.7432 C.ar    1  UNL1        0.0310
     25 C         141.3789  142.2520  169.1660 C.ar    1  UNL1        0.1492
     26 N         140.2961  142.3651  168.1340 N.ar    1  UNL1       -0.2321
     27 C         140.6522  142.4478  166.6793 C.ar    1  UNL1        0.1195
     28 C         141.0227  142.1693  170.6208 C.1     1  UNL1        0.1198
     29 N         140.6665  142.0865  172.0755 N.1     1  UNL1       -0.1893
@<TRIPOS>BOND
     1    15    16    1
     2    16     3    1
     3     3     4   ar
     4     4     1    1
     5     1     2    1
     6     1    17    1
     7    17    19    1
     8    19    20    2
     9    19    21    2
    10    19    22    1
    11    22    23   ar
    12    23    24   ar
    13    24    25   ar
    14    25    28    1
    15    28    29    3
    16    25    26   ar
    17    26    27   ar
    18     4     5   ar
    19     5     6   ar
    20     6     7   ar
    21     7     8   ar
    22     8     9   ar
    23     9    12    1
    24    12    13    1
    25    13    14    1
    26     9    10   ar
    27    10    11   ar
    28    11     3   ar
    29    27    22   ar
    30    11     6   ar
    31    14    12    1
    32    17    18    1
@<TRIPOS>MOLECULE
*****
 29 32 0 0 0
SMALL
GASTEIGER

@<TRIPOS>ATOM
      1 C         138.5021  139.4711  162.6650 C.3     1  UNL1        0.1319
      2 C         138.4134  137.9828  162.5008 C.3     1  UNL1        0.0270
      3 N         139.3490  140.2230  165.0862 N.ar    1  UNL1       -0.3137
      4 C         139.5112  140.0633  163.6036 C.ar    1  UNL1        0.1363
      5 N         140.8597  140.5998  163.2244 N.ar    1  UNL1       -0.2280
      6 C         141.5309  141.0911  164.4726 C.ar    1  UNL1        0.1174
      7 C         142.8716  141.7203  164.7101 C.ar    1  UNL1        0.1190
      8 N         143.2787  142.1168  166.0983 N.ar    1  UNL1       -0.2465
      9 C         142.3450  141.8839  167.2490 C.ar    1  UNL1        0.0602
     10 C         141.0043  141.2546  167.0115 C.ar    1  UNL1        0.0335
     11 C         140.5973  140.8582  165.6233 C.ar    1  UNL1        0.0814
     12 C         142.7522  142.2804  168.6372 C.3     1  UNL1        0.0403
     13 C         143.7730  142.2991  169.7361 C.3     1  UNL1        0.0063
     14 C         142.4366  142.9482  169.9428 C.3     1  UNL1        0.0063
     15 C         138.0614  138.4346  166.4623 C.3     1  UNL1        0.0265
     16 C         138.1493  139.8186  165.8906 C.3     1  UNL1        0.1073
     17 N         137.5817  140.3672  161.8905 N.3     1  UNL1       -0.1735
     18 H         137.0380  140.8931  162.5749 H       1  UNL1        0.1492
     19 S         138.1454  141.3670  160.9248 S.O2    1  UNL1        0.0621
     20 O         137.6335  142.4852  161.7835 O.2     1  UNL1       -0.1529
     21 O         138.6573  140.2487  160.0660 O.2     1  UNL1       -0.1529
     22 C         138.7091  142.3667  159.9590 C.ar    1  UNL1        0.1411
     23 C         139.6107  143.4595  160.4516 C.ar    1  UNL1        0.0238
     24 C         140.1744  144.4593  159.4858 C.ar    1  UNL1        0.0310
     25 C         139.8365  144.3662  158.0274 C.ar    1  UNL1        0.1492
     26 N         138.9348  143.2733  157.5347 N.ar    1  UNL1       -0.2321
     27 C         138.3711  142.2736  158.5005 C.ar    1  UNL1        0.1195
     28 C         140.4002  145.3659  157.0616 C.1     1  UNL1        0.1198
     29 N         140.9639  146.3657  156.0958 N.1     1  UNL1       -0.1893
@<TRIPOS>BOND
     1    15    16    1
     2    16     3    1
     3     3     4   ar
     4     4     1    1
     5     1     2    1
     6     1    17    1
     7    17    19    1
     8    19    20    2
     9    19    21    2
    10    19    22    1
    11    22    23   ar
    12    23    24   ar
    13    24    25   ar
    14    25    28    1
    15    28    29    3
    16    25    26   ar
    17    26    27   ar
    18     4     5   ar
    19     5     6   ar
    20     6     7   ar
    21     7     8   ar
    22     8     9   ar
    23     9    12    1
    24    12    13    1
    25    13    14    1
    26     9    10   ar
    27    10    11   ar
    28    11     3   ar
    29    27    22   ar
    30    11     6   ar
    31    14    12    1
    32    17    18    1
@<TRIPOS>MOLECULE
*****
 29 32 0 0 0
SMALL
GASTEIGER

@<TRIPOS>ATOM
      1 C         140.6105  145.2639  161.8662 C.3     1  UNL1        0.1319
      2 C         139.6407  146.4069  161.8124 C.3     1  UNL1        0.0270
      3 N         139.3651  143.1081  162.8390 N.ar    1  UNL1       -0.3137
      4 C         140.4245  144.1693  162.8748 C.ar    1  UNL1        0.1363
      5 N         141.2654  143.9437  164.0963 N.ar    1  UNL1       -0.2280
      6 C         140.7256  142.7430  164.8154 C.ar    1  UNL1        0.1174
      7 C         141.1517  142.0533  166.0774 C.ar    1  UNL1        0.1190
      8 N         140.4034  140.8472  166.5623 N.ar    1  UNL1       -0.2465
      9 C         139.2289  140.3307  165.7852 C.ar    1  UNL1        0.0602
     10 C         138.8028  141.0204  164.5232 C.ar    1  UNL1        0.0335
     11 C         139.5511  142.2266  164.0383 C.ar    1  UNL1        0.0814
     12 C         138.4806  139.1245  166.2701 C.3     1  UNL1        0.0403
     13 C         138.1510  137.6660  166.1518 C.3     1  UNL1        0.0063
     14 C         137.5141  138.4938  167.2283 C.3     1  UNL1        0.0063
     15 C         138.4385  141.8925  160.7381 C.3     1  UNL1        0.0265
     16 C         138.3055  142.9551  161.7883 C.3     1  UNL1        0.1073
     17 N         141.7664  145.2155  160.9114 N.3     1  UNL1       -0.1735
     18 H         142.6027  145.4419  161.4498 H       1  UNL1        0.1492
     19 S         142.0648  143.9531  160.1583 S.O2    1  UNL1        0.0621
     20 O         140.8107  144.1355  159.3557 O.2     1  UNL1       -0.1529
     21 O         143.3188  143.7707  160.9609 O.2     1  UNL1       -0.1529
     22 C         142.3631  142.6906  159.4052 C.ar    1  UNL1        0.1411
     23 C         141.3081  142.0654  158.5415 C.ar    1  UNL1        0.0238
     24 C         141.6065  140.8029  157.7884 C.ar    1  UNL1        0.0310
     25 C         142.9599  140.1657  157.8990 C.ar    1  UNL1        0.1492
     26 N         144.0150  140.7909  158.7627 N.ar    1  UNL1       -0.2321
     27 C         143.7166  142.0534  159.5158 C.ar    1  UNL1        0.1195
     28 C         143.2583  138.9033  157.1458 C.1     1  UNL1        0.1198
     29 N         143.5566  137.6408  156.3927 N.1     1  UNL1       -0.1893
@<TRIPOS>BOND
     1    15    16    1
     2    16     3    1
     3     3     4   ar
     4     4     1    1
     5     1     2    1
     6     1    17    1
     7    17    19    1
     8    19    20    2
     9    19    21    2
    10    19    22    1
    11    22    23   ar
    12    23    24   ar
    13    24    25   ar
    14    25    28    1
    15    28    29    3
    16    25    26   ar
    17    26    27   ar
    18     4     5   ar
    19     5     6   ar
    20     6     7   ar
    21     7     8   ar
    22     8     9   ar
    23     9    12    1
    24    12    13    1
    25    13    14    1
    26     9    10   ar
    27    10    11   ar
    28    11     3   ar
    29    27    22   ar
    30    11     6   ar
    31    14    12    1
    32    17    18    1
@<TRIPOS>MOLECULE
*****
 29 32 0 0 0
SMALL
GASTEIGER

@<TRIPOS>ATOM
      1 C         144.0323  141.1323  162.9288 C.3     1  UNL1        0.1319
      2 C         145.2282  140.7688  163.7580 C.3     1  UNL1        0.0270
      3 N         143.2965  139.0731  161.3915 N.ar    1  UNL1       -0.3137
      4 C         143.8085  140.4671  161.6032 C.ar    1  UNL1        0.1363
      5 N         144.0573  141.0789  160.2565 N.ar    1  UNL1       -0.2280
      6 C         143.6992  140.0632  159.2124 C.ar    1  UNL1        0.1174
      7 C         143.7405  140.1070  157.7137 C.ar    1  UNL1        0.1190
      8 N         143.3115  138.9110  156.9164 N.ar    1  UNL1       -0.2465
      9 C         142.8413  137.6713  157.6179 C.ar    1  UNL1        0.0602
     10 C         142.8000  137.6276  159.1166 C.ar    1  UNL1        0.0335
     11 C         143.2290  138.8235  159.9139 C.ar    1  UNL1        0.0814
     12 C         142.4124  136.4753  156.8205 C.3     1  UNL1        0.0403
     13 C         141.4811  135.8396  155.8313 C.3     1  UNL1        0.0063
     14 C         142.6007  135.0397  156.4286 C.3     1  UNL1        0.0063
     15 C         141.4727  137.8131  162.7464 C.3     1  UNL1        0.0265
     16 C         142.9185  138.0997  162.4683 C.3     1  UNL1        0.1073
     17 N         143.0602  142.1611  163.4254 N.3     1  UNL1       -0.1735
     18 H         142.2109  142.0557  162.8704 H       1  UNL1        0.1492
     19 S         142.6393  142.1621  164.8651 S.O2    1  UNL1        0.0621
     20 O         141.9003  140.8746  164.6499 O.2     1  UNL1       -0.1529
     21 O         143.3784  143.4495  165.0803 O.2     1  UNL1       -0.1529
     22 C         142.2184  142.1631  166.3048 C.ar    1  UNL1        0.1411
     23 C         143.2473  142.3066  167.3869 C.ar    1  UNL1        0.0238
     24 C         142.8264  142.3076  168.8266 C.ar    1  UNL1        0.0310
     25 C         141.3767  142.1651  169.1843 C.ar    1  UNL1        0.1492
     26 N         140.3478  142.0215  168.1022 N.ar    1  UNL1       -0.2321
     27 C         140.7686  142.0205  166.6625 C.ar    1  UNL1        0.1195
     28 C         140.9558  142.1661  170.6241 C.1     1  UNL1        0.1198
     29 N         140.5349  142.1671  172.0638 N.1     1  UNL1       -0.1893
@<TRIPOS>BOND
     1    15    16    1
     2    16     3    1
     3     3     4   ar
     4     4     1    1
     5     1     2    1
     6     1    17    1
     7    17    19    1
     8    19    20    2
     9    19    21    2
    10    19    22    1
    11    22    23   ar
    12    23    24   ar
    13    24    25   ar
    14    25    28    1
    15    28    29    3
    16    25    26   ar
    17    26    27   ar
    18     4     5   ar
    19     5     6   ar
    20     6     7   ar
    21     7     8   ar
    22     8     9   ar
    23     9    12    1
    24    12    13    1
    25    13    14    1
    26     9    10   ar
    27    10    11   ar
    28    11     3   ar
    29    27    22   ar
    30    11     6   ar
    31    14    12    1
    32    17    18    1
@<TRIPOS>MOLECULE
*****
 29 32 0 0 0
SMALL
GASTEIGER

@<TRIPOS>ATOM
      1 C         143.3935  144.0392  162.9508 C.3     1  UNL1        0.1319
      2 C         143.7297  145.2521  163.7668 C.3     1  UNL1        0.0270
      3 N         142.2695  142.0368  164.3190 N.ar    1  UNL1       -0.3137
      4 C         142.2329  143.1720  163.3393 C.ar    1  UNL1        0.1363
      5 N         140.8318  143.2878  162.8162 N.ar    1  UNL1       -0.2280
      6 C         140.0025  142.2242  163.4727 C.ar    1  UNL1        0.1174
      7 C         138.5531  141.8598  163.3447 C.ar    1  UNL1        0.1190
      8 N         137.9923  140.7222  164.1456 N.ar    1  UNL1       -0.2465
      9 C         138.8808  139.9491  165.0744 C.ar    1  UNL1        0.0602
     10 C         140.3302  140.3134  165.2023 C.ar    1  UNL1        0.0335
     11 C         140.8911  141.4510  164.4015 C.ar    1  UNL1        0.0814
     12 C         138.3199  138.8115  165.8752 C.3     1  UNL1        0.0403
     13 C         137.5387  138.3146  167.0553 C.3     1  UNL1        0.0063
     14 C         138.1296  137.3380  166.0822 C.3     1  UNL1        0.0063
     15 C         144.0515  140.2119  164.8131 C.3     1  UNL1        0.0265
     16 C         143.4732  141.5694  165.0824 C.3     1  UNL1        0.1073
     17 N         144.2180  143.6935  161.7463 N.3     1  UNL1       -0.1735
     18 H         145.1811  143.5947  162.0673 H       1  UNL1        0.1492
     19 S         143.8996  142.4647  160.9471 S.O2    1  UNL1        0.0621
     20 O         144.8505  141.6692  161.7914 O.2     1  UNL1       -0.1529
     21 O         142.9487  143.2603  160.1028 O.2     1  UNL1       -0.1529
     22 C         143.5813  141.2360  160.1478 C.ar    1  UNL1        0.1411
     23 C         142.6636  140.1918  160.7111 C.ar    1  UNL1        0.0238
     24 C         142.3452  138.9630  159.9119 C.ar    1  UNL1        0.0310
     25 C         142.9446  138.7785  158.5493 C.ar    1  UNL1        0.1492
     26 N         143.8624  139.8227  157.9859 N.ar    1  UNL1       -0.2321
     27 C         144.1807  141.0515  158.7852 C.ar    1  UNL1        0.1195
     28 C         142.6262  137.5497  157.7501 C.1     1  UNL1        0.1198
     29 N         142.3079  136.3210  156.9508 N.1     1  UNL1       -0.1893
@<TRIPOS>BOND
     1    15    16    1
     2    16     3    1
     3     3     4   ar
     4     4     1    1
     5     1     2    1
     6     1    17    1
     7    17    19    1
     8    19    20    2
     9    19    21    2
    10    19    22    1
    11    22    23   ar
    12    23    24   ar
    13    24    25   ar
    14    25    28    1
    15    28    29    3
    16    25    26   ar
    17    26    27   ar
    18     4     5   ar
    19     5     6   ar
    20     6     7   ar
    21     7     8   ar
    22     8     9   ar
    23     9    12    1
    24    12    13    1
    25    13    14    1
    26     9    10   ar
    27    10    11   ar
    28    11     3   ar
    29    27    22   ar
    30    11     6   ar
    31    14    12    1
    32    17    18    1
@<TRIPOS>MOLECULE
*****
 29 32 0 0 0
SMALL
GASTEIGER

@<TRIPOS>ATOM
      1 C         142.7006  143.9441  162.7903 C.3     1  UNL1        0.1319
      2 C         142.8124  145.0714  163.7735 C.3     1  UNL1        0.0270
      3 N         141.1277  145.0671  160.9437 N.ar    1  UNL1       -0.3137
      4 C         142.2893  144.2216  161.3747 C.ar    1  UNL1        0.1363
      5 N         142.9672  143.7023  160.1416 N.ar    1  UNL1       -0.2280
      6 C         142.2247  144.2268  158.9485 C.ar    1  UNL1        0.1174
      7 C         142.4369  144.0454  157.4748 C.ar    1  UNL1        0.1190
      8 N         141.5122  144.7074  156.4968 N.ar    1  UNL1       -0.2465
      9 C         140.3752  145.5510  156.9925 C.ar    1  UNL1        0.0602
     10 C         140.1630  145.7324  158.4663 C.ar    1  UNL1        0.0335
     11 C         141.0877  145.0704  159.4443 C.ar    1  UNL1        0.0814
     12 C         139.4505  146.2131  156.0144 C.3     1  UNL1        0.0403
     13 C         139.0599  147.4132  155.2039 C.3     1  UNL1        0.0063
     14 C         138.2394  146.1596  155.1310 C.3     1  UNL1        0.0063
     15 C         139.1031  145.0170  162.5712 C.3     1  UNL1        0.0265
     16 C         140.1735  145.7837  161.8526 C.3     1  UNL1        0.1073
     17 N         143.0002  142.5394  163.2226 N.3     1  UNL1       -0.1735
     18 H         143.8190  142.5863  163.8290 H       1  UNL1        0.1492
     19 S         141.9625  141.7433  163.9570 S.O2    1  UNL1        0.0621
     20 O         142.6393  142.0606  165.2574 O.2     1  UNL1       -0.1529
     21 O         141.2857  141.4259  162.6565 O.2     1  UNL1       -0.1529
     22 C         140.9248  140.9471  164.6913 C.ar    1  UNL1        0.1411
     23 C         140.9738  140.8501  166.1874 C.ar    1  UNL1        0.0238
     24 C         139.9361  140.0540  166.9218 C.ar    1  UNL1        0.0310
     25 C         138.8494  139.3548  166.1601 C.ar    1  UNL1        0.1492
     26 N         138.8004  139.4517  164.6640 N.ar    1  UNL1       -0.2321
     27 C         139.8381  140.2479  163.9296 C.ar    1  UNL1        0.1195
     28 C         137.8117  138.5586  166.8945 C.1     1  UNL1        0.1198
     29 N         136.7740  137.7625  167.6288 N.1     1  UNL1       -0.1893
@<TRIPOS>BOND
     1    15    16    1
     2    16     3    1
     3     3     4   ar
     4     4     1    1
     5     1     2    1
     6     1    17    1
     7    17    19    1
     8    19    20    2
     9    19    21    2
    10    19    22    1
    11    22    23   ar
    12    23    24   ar
    13    24    25   ar
    14    25    28    1
    15    28    29    3
    16    25    26   ar
    17    26    27   ar
    18     4     5   ar
    19     5     6   ar
    20     6     7   ar
    21     7     8   ar
    22     8     9   ar
    23     9    12    1
    24    12    13    1
    25    13    14    1
    26     9    10   ar
    27    10    11   ar
    28    11     3   ar
    29    27    22   ar
    30    11     6   ar
    31    14    12    1
    32    17    18    1
@<TRIPOS>MOLECULE
*****
 29 32 0 0 0
SMALL
GASTEIGER

@<TRIPOS>ATOM
      1 C         143.0487  139.2259  165.7664 C.3     1  UNL1        0.1319
      2 C         143.7055  138.2114  166.6549 C.3     1  UNL1        0.0270
      3 N         142.3122  138.1848  163.4172 N.ar    1  UNL1       -0.3137
      4 C         143.1442  139.0909  164.2755 C.ar    1  UNL1        0.1363
      5 N         144.0883  139.8384  163.3812 N.ar    1  UNL1       -0.2280
      6 C         143.8399  139.3943  161.9702 C.ar    1  UNL1        0.1174
      7 C         144.4714  139.7884  160.6680 C.ar    1  UNL1        0.1190
      8 N         144.0052  139.1605  159.3880 N.ar    1  UNL1       -0.2465
      9 C         142.9075  138.1385  159.4102 C.ar    1  UNL1        0.0602
     10 C         142.2760  137.7444  160.7124 C.ar    1  UNL1        0.0335
     11 C         142.7422  138.3722  161.9924 C.ar    1  UNL1        0.0814
     12 C         142.4414  137.5106  158.1302 C.3     1  UNL1        0.0403
     13 C         141.4379  137.4171  157.0193 C.3     1  UNL1        0.0063
     14 C         142.6374  136.5166  157.0240 C.3     1  UNL1        0.0063
     15 C         139.7989  137.6677  163.8239 C.3     1  UNL1        0.0265
     16 C         141.2388  137.2545  163.8990 C.3     1  UNL1        0.1073
     17 N         142.2965  140.3753  166.3688 N.3     1  UNL1       -0.1735
     18 H         142.9168  140.8063  167.0543 H       1  UNL1        0.1492
     19 S         141.7863  141.4799  165.4916 S.O2    1  UNL1        0.0621
     20 O         140.4528  140.7981  165.4085 O.2     1  UNL1       -0.1529
     21 O         143.1198  142.1617  165.5746 O.2     1  UNL1       -0.1529
     22 C         141.2762  142.5845  164.6143 C.ar    1  UNL1        0.1411
     23 C         140.2184  143.5185  165.1231 C.ar    1  UNL1        0.0238
     24 C         139.7083  144.6232  164.2459 C.ar    1  UNL1        0.0310
     25 C         140.2558  144.7938  162.8599 C.ar    1  UNL1        0.1492
     26 N         141.3136  143.8598  162.3510 N.ar    1  UNL1       -0.2321
     27 C         141.8238  142.7552  163.2283 C.ar    1  UNL1        0.1195
     28 C         139.7457  145.8984  161.9826 C.1     1  UNL1        0.1198
     29 N         139.2355  147.0031  161.1054 N.1     1  UNL1       -0.1893
@<TRIPOS>BOND
     1    15    16    1
     2    16     3    1
     3     3     4   ar
     4     4     1    1
     5     1     2    1
     6     1    17    1
     7    17    19    1
     8    19    20    2
     9    19    21    2
    10    19    22    1
    11    22    23   ar
    12    23    24   ar
    13    24    25   ar
    14    25    28    1
    15    28    29    3
    16    25    26   ar
    17    26    27   ar
    18     4     5   ar
    19     5     6   ar
    20     6     7   ar
    21     7     8   ar
    22     8     9   ar
    23     9    12    1
    24    12    13    1
    25    13    14    1
    26     9    10   ar
    27    10    11   ar
    28    11     3   ar
    29    27    22   ar
    30    11     6   ar
    31    14    12    1
    32    17    18    1
@<TRIPOS>MOLECULE
*****
 29 32 0 0 0
SMALL
GASTEIGER

@<TRIPOS>ATOM
      1 C         138.7890  138.7830  163.7939 C.3     1  UNL1        0.1319
      2 C         139.0242  137.3369  163.4724 C.3     1  UNL1        0.0270
      3 N         140.6286  140.0787  165.2369 N.ar    1  UNL1       -0.3137
      4 C         139.3206  139.3635  165.0708 C.ar    1  UNL1        0.1363
      5 N         138.6374  139.3308  166.4058 N.ar    1  UNL1       -0.2280
      6 C         139.5232  140.0258  167.3969 C.ar    1  UNL1        0.1174
      7 C         139.3682  140.2974  168.8640 C.ar    1  UNL1        0.1190
      8 N         140.4439  141.0312  169.6085 N.ar    1  UNL1       -0.2465
      9 C         141.6745  141.4935  168.8861 C.ar    1  UNL1        0.0602
     10 C         141.8295  141.2218  167.4191 C.ar    1  UNL1        0.0335
     11 C         140.7539  140.4880  166.6745 C.ar    1  UNL1        0.0814
     12 C         142.7502  142.2273  169.6308 C.3     1  UNL1        0.0403
     13 C         144.2044  142.4791  169.8988 C.3     1  UNL1        0.0063
     14 C         143.1590  143.2467  170.6524 C.3     1  UNL1        0.0063
     15 C         142.5881  139.2573  163.7417 C.3     1  UNL1        0.0265
     16 C         141.6348  140.3389  164.1552 C.3     1  UNL1        0.1073
     17 N         138.0224  139.6486  162.8384 N.3     1  UNL1       -0.1735
     18 H         137.3073  140.1287  163.3849 H       1  UNL1        0.1492
     19 S         138.7358  140.6996  162.0406 S.O2    1  UNL1        0.0621
     20 O         138.0817  141.7690  162.8643 O.2     1  UNL1       -0.1529
     21 O         139.3899  139.6302  161.2169 O.2     1  UNL1       -0.1529
     22 C         139.4492  141.7505  161.2428 C.ar    1  UNL1        0.1411
     23 C         140.8949  141.5689  160.8863 C.ar    1  UNL1        0.0238
     24 C         141.6083  142.6199  160.0884 C.ar    1  UNL1        0.0310
     25 C         140.8761  143.8524  159.6471 C.ar    1  UNL1        0.1492
     26 N         139.4304  144.0339  160.0036 N.ar    1  UNL1       -0.2321
     27 C         138.7169  142.9830  160.8014 C.ar    1  UNL1        0.1195
     28 C         141.5895  144.9033  158.8492 C.1     1  UNL1        0.1198
     29 N         142.3030  145.9542  158.0514 N.1     1  UNL1       -0.1893
@<TRIPOS>BOND
     1    15    16    1
     2    16     3    1
     3     3     4   ar
     4     4     1    1
     5     1     2    1
     6     1    17    1
     7    17    19    1
     8    19    20    2
     9    19    21    2
    10    19    22    1
    11    22    23   ar
    12    23    24   ar
    13    24    25   ar
    14    25    28    1
    15    28    29    3
    16    25    26   ar
    17    26    27   ar
    18     4     5   ar
    19     5     6   ar
    20     6     7   ar
    21     7     8   ar
    22     8     9   ar
    23     9    12    1
    24    12    13    1
    25    13    14    1
    26     9    10   ar
    27    10    11   ar
    28    11     3   ar
    29    27    22   ar
    30    11     6   ar
    31    14    12    1
    32    17    18    1
