@<TRIPOS>MOLECULE
*****
 35 38 0 0 0
SMALL
GASTEIGER

@<TRIPOS>ATOM
      1 O         142.3115  141.8058  162.2741 O.2     1  UNL1       -0.2510
      2 C         142.3527  140.7853  161.1756 C.2     1  UNL1        0.3226
      3 N         141.5464  139.5258  161.2912 N.am    1  UNL1       -0.1691
      4 N         143.2003  141.0244  159.9612 N.am    1  UNL1       -0.2629
      5 C         143.2415  140.0039  158.8626 C.3     1  UNL1        0.0964
      6 C         144.0891  140.2430  157.6484 C.3     1  UNL1        0.0376
      7 C         144.8954  141.5026  157.5327 C.3     1  UNL1        0.0609
      8 C         144.8541  142.5231  158.6313 C.3     1  UNL1        0.0376
      9 C         144.0066  142.2840  159.8456 C.3     1  UNL1        0.0964
     10 H         141.5735  138.8560  160.5702 H       1  UNL1        0.1781
     11 N         145.7430  141.7417  156.3184 N.3     1  UNL1       -0.2736
     12 C         147.1221  142.3125  156.4669 C.3     1  UNL1        0.0758
     13 C         147.9696  142.5516  155.2526 C.3     1  UNL1        0.0609
     14 C         147.4380  142.2197  153.8898 C.3     1  UNL1        0.1687
     15 C         146.0589  141.6489  153.7413 C.3     1  UNL1        0.0609
     16 C         145.2114  141.4099  154.9556 C.3     1  UNL1        0.0758
     17 O         148.2856  142.4588  152.6755 O.3     1  UNL1       -0.4790
     18 C         149.7807  142.4023  152.7815 C.ar    1  UNL1        0.1393
     19 C         150.5820  143.6703  152.7684 C.ar    1  UNL1        0.0378
     20 C         152.0772  143.6138  152.8744 C.ar    1  UNL1        0.0154
     21 C         152.7711  142.2893  152.9935 C.ar    1  UNL1        0.0684
     22 CL        154.2663  142.2329  153.0996 Cl      1  UNL1       -0.0814
     23 C         151.9698  141.0213  153.0067 C.ar    1  UNL1        0.0712
     24 CL        152.6637  139.6969  153.1258 Cl      1  UNL1       -0.0813
     25 C         150.4747  141.0778  152.9007 C.ar    1  UNL1        0.0491
     26 S         140.6988  139.2867  162.5055 S.O2    1  UNL1        0.0768
     27 O         139.5672  140.0322  161.8624 O.2     1  UNL1       -0.1498
     28 O         141.8305  138.5412  163.1486 O.2     1  UNL1       -0.1498
     29 C         139.8513  139.0475  163.7198 C.ar    1  UNL1        0.1253
     30 C         139.2412  140.2077  164.4489 C.ar    1  UNL1        0.0211
     31 C         138.3937  139.9686  165.6632 C.ar    1  UNL1        0.0128
     32 C         138.1563  138.5692  166.1483 C.ar    1  UNL1        0.0578
     33 CL        137.3087  138.3300  167.3627 Cl      1  UNL1       -0.0822
     34 C         138.7663  137.4090  165.4192 C.ar    1  UNL1        0.0128
     35 C         139.6138  137.6481  164.2049 C.ar    1  UNL1        0.0211
@<TRIPOS>BOND
     1     1     2    2
     2     2     3   am
     3     3    26    1
     4    26    27    2
     5    26    28    2
     6    26    29    1
     7    29    30   ar
     8    30    31   ar
     9    31    32   ar
    10    32    33    1
    11    32    34   ar
    12    34    35   ar
    13     2     4   am
    14     4     5    1
    15     5     6    1
    16     6     7    1
    17     7    11    1
    18    11    12    1
    19    12    13    1
    20    13    14    1
    21    14    17    1
    22    17    18    1
    23    18    19   ar
    24    19    20   ar
    25    20    21   ar
    26    21    22    1
    27    21    23   ar
    28    23    24    1
    29    23    25   ar
    30    14    15    1
    31    15    16    1
    32     7     8    1
    33     8     9    1
    34    35    29   ar
    35     9     4    1
    36    16    11    1
    37    25    18   ar
    38     3    10    1
@<TRIPOS>MOLECULE
*****
 35 38 0 0 0
SMALL
GASTEIGER

@<TRIPOS>ATOM
      1 O         142.5546  140.9602  163.8851 O.2     1  UNL1       -0.2510
      2 C         141.3761  140.2150  163.3320 C.2     1  UNL1        0.3226
      3 N         140.1573  140.0032  164.1803 N.am    1  UNL1       -0.1691
      4 N         141.4164  139.6817  161.9306 N.am    1  UNL1       -0.2629
      5 C         140.2380  138.9366  161.3775 C.3     1  UNL1        0.0964
      6 C         140.2783  138.4033  159.9761 C.3     1  UNL1        0.0376
      7 C         141.4971  138.6152  159.1278 C.3     1  UNL1        0.0609
      8 C         142.6756  139.3603  159.6809 C.3     1  UNL1        0.0376
      9 C         142.6352  139.8936  161.0823 C.3     1  UNL1        0.0964
     10 H         139.3838  139.5141  163.8173 H       1  UNL1        0.1781
     11 N         141.5374  138.0818  157.7263 N.3     1  UNL1       -0.2736
     12 C         142.8377  138.0310  156.9803 C.3     1  UNL1        0.0758
     13 C         142.8780  137.4977  155.5790 C.3     1  UNL1        0.0609
     14 C         141.6180  137.0152  154.9236 C.3     1  UNL1        0.1687
     15 C         140.3176  137.0661  155.6696 C.3     1  UNL1        0.0609
     16 C         140.2774  137.5994  157.0710 C.3     1  UNL1        0.0758
     17 O         141.6583  136.4819  153.5221 O.3     1  UNL1       -0.4790
     18 C         141.7017  135.0016  153.2839 C.ar    1  UNL1        0.1393
     19 C         140.8562  134.3902  152.2063 C.ar    1  UNL1        0.0378
     20 C         140.8997  132.9098  151.9681 C.ar    1  UNL1        0.0154
     21 C         141.7886  132.0409  152.8076 C.ar    1  UNL1        0.0684
     22 CL        141.8321  130.5606  152.5694 Cl      1  UNL1       -0.0814
     23 C         142.6341  132.6523  153.8853 C.ar    1  UNL1        0.0712
     24 CL        143.5230  131.7834  154.7248 Cl      1  UNL1       -0.0813
     25 C         142.5906  134.1326  154.1234 C.ar    1  UNL1        0.0491
     26 S         140.1170  140.5364  165.5817 S.O2    1  UNL1        0.0768
     27 O         140.6521  139.2320  166.0935 O.2     1  UNL1       -0.1498
     28 O         139.5819  141.8409  165.0699 O.2     1  UNL1       -0.1498
     29 C         140.0766  141.0698  166.9832 C.ar    1  UNL1        0.1253
     30 C         139.5720  140.2054  168.1004 C.ar    1  UNL1        0.0211
     31 C         139.5316  140.7388  169.5017 C.ar    1  UNL1        0.0128
     32 C         139.9959  142.1365  169.7859 C.ar    1  UNL1        0.0578
     33 CL        139.9555  142.6699  171.1873 Cl      1  UNL1       -0.0822
     34 C         140.5005  143.0009  168.6687 C.ar    1  UNL1        0.0128
     35 C         140.5409  142.4675  167.2674 C.ar    1  UNL1        0.0211
@<TRIPOS>BOND
     1     1     2    2
     2     2     3   am
     3     3    26    1
     4    26    27    2
     5    26    28    2
     6    26    29    1
     7    29    30   ar
     8    30    31   ar
     9    31    32   ar
    10    32    33    1
    11    32    34   ar
    12    34    35   ar
    13     2     4   am
    14     4     5    1
    15     5     6    1
    16     6     7    1
    17     7    11    1
    18    11    12    1
    19    12    13    1
    20    13    14    1
    21    14    17    1
    22    17    18    1
    23    18    19   ar
    24    19    20   ar
    25    20    21   ar
    26    21    22    1
    27    21    23   ar
    28    23    24    1
    29    23    25   ar
    30    14    15    1
    31    15    16    1
    32     7     8    1
    33     8     9    1
    34    35    29   ar
    35     9     4    1
    36    16    11    1
    37    25    18   ar
    38     3    10    1
@<TRIPOS>MOLECULE
*****
 35 38 0 0 0
SMALL
GASTEIGER

@<TRIPOS>ATOM
      1 O         143.2148  134.9810  154.5658 O.2     1  UNL1       -0.2510
      2 C         143.1137  135.0356  156.0614 C.2     1  UNL1        0.3226
      3 N         143.1207  133.7662  156.8604 N.am    1  UNL1       -0.1691
      4 N         143.0056  136.3597  156.7580 N.am    1  UNL1       -0.2629
      5 C         142.9045  136.4143  158.2535 C.3     1  UNL1        0.0964
      6 C         142.7964  137.7384  158.9500 C.3     1  UNL1        0.0376
      7 C         142.7895  139.0078  158.1510 C.3     1  UNL1        0.0609
      8 C         142.8906  138.9532  156.6554 C.3     1  UNL1        0.0376
      9 C         142.9987  137.6291  155.9589 C.3     1  UNL1        0.0964
     10 H         143.0543  133.8020  157.8420 H       1  UNL1        0.1781
     11 N         142.6814  140.3319  158.8475 N.3     1  UNL1       -0.2736
     12 C         141.3328  140.8867  159.1988 C.3     1  UNL1        0.0758
     13 C         141.2248  142.2107  159.8954 C.3     1  UNL1        0.0609
     14 C         142.4654  142.9800  160.2406 C.3     1  UNL1        0.1687
     15 C         143.8140  142.4252  159.8894 C.3     1  UNL1        0.0609
     16 C         143.9220  141.1012  159.1928 C.3     1  UNL1        0.0758
     17 O         142.3573  144.3041  160.9372 O.3     1  UNL1       -0.4790
     18 C         141.3904  144.4785  162.0706 C.ar    1  UNL1        0.1393
     19 C         140.1864  145.3568  161.9009 C.ar    1  UNL1        0.0378
     20 C         139.2195  145.5313  163.0344 C.ar    1  UNL1        0.0154
     21 C         139.4567  144.8274  164.3376 C.ar    1  UNL1        0.0684
     22 CL        138.4898  145.0019  165.4710 Cl      1  UNL1       -0.0814
     23 C         140.6607  143.9491  164.5073 C.ar    1  UNL1        0.0712
     24 CL        140.8980  143.2453  165.8105 Cl      1  UNL1       -0.0813
     25 C         141.6276  143.7747  163.3739 C.ar    1  UNL1        0.0491
     26 S         143.2287  132.4421  156.1639 S.O2    1  UNL1        0.0768
     27 O         144.7238  132.5118  156.2634 O.2     1  UNL1       -0.1498
     28 O         141.7337  132.3724  156.0645 O.2     1  UNL1       -0.1498
     29 C         143.3368  131.1180  155.4674 C.ar    1  UNL1        0.1253
     30 C         144.6669  130.4330  155.3607 C.ar    1  UNL1        0.0211
     31 C         144.7749  129.1090  154.6642 C.ar    1  UNL1        0.0128
     32 C         143.5527  128.4699  154.0744 C.ar    1  UNL1        0.0578
     33 CL        143.6608  127.1458  153.3778 Cl      1  UNL1       -0.0822
     34 C         142.2226  129.1549  154.1811 C.ar    1  UNL1        0.0128
     35 C         142.1146  130.4789  154.8776 C.ar    1  UNL1        0.0211
@<TRIPOS>BOND
     1     1     2    2
     2     2     3   am
     3     3    26    1
     4    26    27    2
     5    26    28    2
     6    26    29    1
     7    29    30   ar
     8    30    31   ar
     9    31    32   ar
    10    32    33    1
    11    32    34   ar
    12    34    35   ar
    13     2     4   am
    14     4     5    1
    15     5     6    1
    16     6     7    1
    17     7    11    1
    18    11    12    1
    19    12    13    1
    20    13    14    1
    21    14    17    1
    22    17    18    1
    23    18    19   ar
    24    19    20   ar
    25    20    21   ar
    26    21    22    1
    27    21    23   ar
    28    23    24    1
    29    23    25   ar
    30    14    15    1
    31    15    16    1
    32     7     8    1
    33     8     9    1
    34    35    29   ar
    35     9     4    1
    36    16    11    1
    37    25    18   ar
    38     3    10    1
@<TRIPOS>MOLECULE
*****
 35 38 0 0 0
SMALL
GASTEIGER

@<TRIPOS>ATOM
      1 O         143.0245  137.8577  154.3117 O.2     1  UNL1       -0.2510
      2 C         142.0166  138.1950  155.3701 C.2     1  UNL1        0.3226
      3 N         141.4781  137.1174  156.2637 N.am    1  UNL1       -0.1691
      4 N         141.5473  139.6102  155.5350 N.am    1  UNL1       -0.2629
      5 C         140.5394  139.9476  156.5934 C.3     1  UNL1        0.0964
      6 C         140.0700  141.3627  156.7582 C.3     1  UNL1        0.0376
      7 C         140.6086  142.4404  155.8646 C.3     1  UNL1        0.0609
      8 C         141.6165  142.1030  154.8062 C.3     1  UNL1        0.0376
      9 C         142.0858  140.6879  154.6414 C.3     1  UNL1        0.0964
     10 H         140.8166  137.3388  156.9584 H       1  UNL1        0.1781
     11 N         140.1392  143.8555  156.0294 N.3     1  UNL1       -0.2736
     12 C         140.8985  144.7993  156.9141 C.3     1  UNL1        0.0758
     13 C         140.4291  146.2144  157.0789 C.3     1  UNL1        0.0609
     14 C         139.2004  146.6857  156.3591 C.3     1  UNL1        0.1687
     15 C         138.4412  145.7419  155.4744 C.3     1  UNL1        0.0609
     16 C         138.9105  144.3268  155.3096 C.3     1  UNL1        0.0758
     17 O         138.7311  148.1008  156.5239 O.3     1  UNL1       -0.4790
     18 C         138.9827  149.1057  155.4391 C.ar    1  UNL1        0.1393
     19 C         139.6740  148.6876  154.1752 C.ar    1  UNL1        0.0378
     20 C         139.9256  149.6925  153.0903 C.ar    1  UNL1        0.0154
     21 C         139.4860  151.1154  153.2694 C.ar    1  UNL1        0.0684
     22 CL        139.7377  152.1202  152.1845 Cl      1  UNL1       -0.0814
     23 C         138.7948  151.5335  154.5332 C.ar    1  UNL1        0.0712
     24 CL        138.3552  152.9564  154.7123 Cl      1  UNL1       -0.0813
     25 C         138.5431  150.5286  155.6181 C.ar    1  UNL1        0.0491
     26 S         141.9474  135.7023  156.0989 S.O2    1  UNL1        0.0768
     27 O         142.9882  135.9244  157.1559 O.2     1  UNL1       -0.1498
     28 O         140.9066  135.4802  155.0419 O.2     1  UNL1       -0.1498
     29 C         142.4167  134.2871  155.9341 C.ar    1  UNL1        0.1253
     30 C         141.4905  133.2506  155.3703 C.ar    1  UNL1        0.0211
     31 C         141.9599  131.8355  155.2055 C.ar    1  UNL1        0.0128
     32 C         143.3554  131.4569  155.6044 C.ar    1  UNL1        0.0578
     33 CL        143.8247  130.0417  155.4396 Cl      1  UNL1       -0.0822
     34 C         144.2816  132.4934  156.1682 C.ar    1  UNL1        0.0128
     35 C         143.8122  133.9085  156.3330 C.ar    1  UNL1        0.0211
@<TRIPOS>BOND
     1     1     2    2
     2     2     3   am
     3     3    26    1
     4    26    27    2
     5    26    28    2
     6    26    29    1
     7    29    30   ar
     8    30    31   ar
     9    31    32   ar
    10    32    33    1
    11    32    34   ar
    12    34    35   ar
    13     2     4   am
    14     4     5    1
    15     5     6    1
    16     6     7    1
    17     7    11    1
    18    11    12    1
    19    12    13    1
    20    13    14    1
    21    14    17    1
    22    17    18    1
    23    18    19   ar
    24    19    20   ar
    25    20    21   ar
    26    21    22    1
    27    21    23   ar
    28    23    24    1
    29    23    25   ar
    30    14    15    1
    31    15    16    1
    32     7     8    1
    33     8     9    1
    34    35    29   ar
    35     9     4    1
    36    16    11    1
    37    25    18   ar
    38     3    10    1
@<TRIPOS>MOLECULE
*****
 35 38 0 0 0
SMALL
GASTEIGER

@<TRIPOS>ATOM
      1 O         142.2088  145.9586  156.7033 O.2     1  UNL1       -0.2510
      2 C         141.4160  144.9424  155.9360 C.2     1  UNL1        0.3226
      3 N         140.2572  145.3788  155.0893 N.am    1  UNL1       -0.1691
      4 N         141.7819  143.4899  156.0153 N.am    1  UNL1       -0.2629
      5 C         140.9891  142.4738  155.2479 C.3     1  UNL1        0.0964
      6 C         141.3550  141.0213  155.3272 C.3     1  UNL1        0.0376
      7 C         142.5138  140.5849  156.1739 C.3     1  UNL1        0.0609
      8 C         143.3066  141.6010  156.9412 C.3     1  UNL1        0.0376
      9 C         142.9407  143.0535  156.8619 C.3     1  UNL1        0.0964
     10 H         139.7368  144.7119  154.5857 H       1  UNL1        0.1781
     11 N         142.8797  139.1323  156.2532 N.3     1  UNL1       -0.2736
     12 C         143.8321  138.5433  155.2552 C.3     1  UNL1        0.0758
     13 C         144.1980  137.0908  155.3345 C.3     1  UNL1        0.0609
     14 C         143.6115  136.2274  156.4118 C.3     1  UNL1        0.1687
     15 C         142.6592  136.8164  157.4098 C.3     1  UNL1        0.0609
     16 C         142.2933  138.2689  157.3305 C.3     1  UNL1        0.0758
     17 O         143.9774  134.7748  156.4911 O.3     1  UNL1       -0.4790
     18 C         143.0841  133.7414  155.8714 C.ar    1  UNL1        0.1393
     19 C         142.0783  134.1443  154.8341 C.ar    1  UNL1        0.0378
     20 C         141.1849  133.1108  154.2145 C.ar    1  UNL1        0.0154
     21 C         141.2974  131.6745  154.6321 C.ar    1  UNL1        0.0684
     22 CL        140.4041  130.6412  154.0124 Cl      1  UNL1       -0.0814
     23 C         142.3032  131.2717  155.6694 C.ar    1  UNL1        0.0712
     24 CL        142.4157  129.8354  156.0870 Cl      1  UNL1       -0.0813
     25 C         143.1966  132.3051  156.2891 C.ar    1  UNL1        0.0491
     26 S         139.8912  146.8313  155.0100 S.O2    1  UNL1        0.0768
     27 O         140.6697  146.9577  153.7341 O.2     1  UNL1       -0.1498
     28 O         139.1128  146.7048  156.2859 O.2     1  UNL1       -0.1498
     29 C         139.5252  148.2838  154.9308 C.ar    1  UNL1        0.1253
     30 C         138.6841  148.9051  156.0061 C.ar    1  UNL1        0.0211
     31 C         138.3181  150.3576  155.9268 C.ar    1  UNL1        0.0128
     32 C         138.7933  151.1888  154.7722 C.ar    1  UNL1        0.0578
     33 CL        138.4273  152.6413  154.6929 Cl      1  UNL1       -0.0822
     34 C         139.6345  150.5675  153.6968 C.ar    1  UNL1        0.0128
     35 C         140.0005  149.1151  153.7761 C.ar    1  UNL1        0.0211
@<TRIPOS>BOND
     1     1     2    2
     2     2     3   am
     3     3    26    1
     4    26    27    2
     5    26    28    2
     6    26    29    1
     7    29    30   ar
     8    30    31   ar
     9    31    32   ar
    10    32    33    1
    11    32    34   ar
    12    34    35   ar
    13     2     4   am
    14     4     5    1
    15     5     6    1
    16     6     7    1
    17     7    11    1
    18    11    12    1
    19    12    13    1
    20    13    14    1
    21    14    17    1
    22    17    18    1
    23    18    19   ar
    24    19    20   ar
    25    20    21   ar
    26    21    22    1
    27    21    23   ar
    28    23    24    1
    29    23    25   ar
    30    14    15    1
    31    15    16    1
    32     7     8    1
    33     8     9    1
    34    35    29   ar
    35     9     4    1
    36    16    11    1
    37    25    18   ar
    38     3    10    1
@<TRIPOS>MOLECULE
*****
 35 38 0 0 0
SMALL
GASTEIGER

@<TRIPOS>ATOM
      1 O         142.5688  140.6229  163.5395 O.2     1  UNL1       -0.2510
      2 C         142.0863  142.0410  163.4612 C.2     1  UNL1        0.3226
      3 N         141.9023  142.8410  164.7166 N.am    1  UNL1       -0.1691
      4 N         141.7877  142.6591  162.1274 N.am    1  UNL1       -0.2629
      5 C         141.3052  144.0772  162.0492 C.3     1  UNL1        0.0964
      6 C         141.0066  144.6953  160.7155 C.3     1  UNL1        0.0376
      7 C         141.1906  143.8953  159.4601 C.3     1  UNL1        0.0609
      8 C         141.6731  142.4772  159.5383 C.3     1  UNL1        0.0376
      9 C         141.9717  141.8591  160.8720 C.3     1  UNL1        0.0964
     10 H         141.5856  143.7717  164.6653 H       1  UNL1        0.1781
     11 N         140.8920  144.5134  158.1263 N.3     1  UNL1       -0.2736
     12 C         141.7888  145.5834  157.5779 C.3     1  UNL1        0.0758
     13 C         141.4902  146.2015  156.2442 C.3     1  UNL1        0.0609
     14 C         140.2948  145.7496  155.4589 C.3     1  UNL1        0.1687
     15 C         139.3979  144.6796  156.0073 C.3     1  UNL1        0.0609
     16 C         139.6965  144.0615  157.3410 C.3     1  UNL1        0.0758
     17 O         139.9962  146.3677  154.1252 O.3     1  UNL1       -0.4790
     18 C         140.0237  147.8591  153.9667 C.ar    1  UNL1        0.1393
     19 C         140.8654  148.4839  152.8938 C.ar    1  UNL1        0.0378
     20 C         140.8928  149.9753  152.7353 C.ar    1  UNL1        0.0154
     21 C         140.0787  150.8418  153.6497 C.ar    1  UNL1        0.0684
     22 CL        140.1062  152.3331  153.4913 Cl      1  UNL1       -0.0814
     23 C         139.2370  150.2170  154.7227 C.ar    1  UNL1        0.0712
     24 CL        138.4228  151.0835  155.6371 Cl      1  UNL1       -0.0813
     25 C         139.2095  148.7256  154.8812 C.ar    1  UNL1        0.0491
     26 S         142.2008  142.2229  166.0503 S.O2    1  UNL1        0.0768
     27 O         143.6411  142.6180  165.9110 O.2     1  UNL1       -0.1498
     28 O         140.7606  141.8279  166.1897 O.2     1  UNL1       -0.1498
     29 C         142.4994  141.6048  167.3841 C.ar    1  UNL1        0.1253
     30 C         142.1249  140.1768  167.6496 C.ar    1  UNL1        0.0211
     31 C         142.4234  139.5588  168.9834 C.ar    1  UNL1        0.0128
     32 C         143.0964  140.3687  170.0516 C.ar    1  UNL1        0.0578
     33 CL        143.3949  139.7506  171.3853 Cl      1  UNL1       -0.0822
     34 C         143.4709  141.7967  169.7861 C.ar    1  UNL1        0.0128
     35 C         143.1723  142.4148  168.4523 C.ar    1  UNL1        0.0211
@<TRIPOS>BOND
     1     1     2    2
     2     2     3   am
     3     3    26    1
     4    26    27    2
     5    26    28    2
     6    26    29    1
     7    29    30   ar
     8    30    31   ar
     9    31    32   ar
    10    32    33    1
    11    32    34   ar
    12    34    35   ar
    13     2     4   am
    14     4     5    1
    15     5     6    1
    16     6     7    1
    17     7    11    1
    18    11    12    1
    19    12    13    1
    20    13    14    1
    21    14    17    1
    22    17    18    1
    23    18    19   ar
    24    19    20   ar
    25    20    21   ar
    26    21    22    1
    27    21    23   ar
    28    23    24    1
    29    23    25   ar
    30    14    15    1
    31    15    16    1
    32     7     8    1
    33     8     9    1
    34    35    29   ar
    35     9     4    1
    36    16    11    1
    37    25    18   ar
    38     3    10    1
@<TRIPOS>MOLECULE
*****
 35 38 0 0 0
SMALL
GASTEIGER

@<TRIPOS>ATOM
      1 O         141.6011  139.3584  162.5703 O.2     1  UNL1       -0.2510
      2 C         142.3561  140.6416  162.3875 C.2     1  UNL1        0.3226
      3 N         142.4037  141.6486  163.4981 N.am    1  UNL1       -0.1691
      4 N         143.0637  140.9177  161.0939 N.am    1  UNL1       -0.2629
      5 C         143.8187  142.2008  160.9111 C.3     1  UNL1        0.0964
      6 C         144.5262  142.4769  159.6176 C.3     1  UNL1        0.0376
      7 C         144.4786  141.4698  158.5069 C.3     1  UNL1        0.0609
      8 C         143.7236  140.1867  158.6897 C.3     1  UNL1        0.0376
      9 C         143.0161  139.9106  159.9832 C.3     1  UNL1        0.0964
     10 H         142.8992  142.4908  163.3781 H       1  UNL1        0.1781
     11 N         145.1862  141.7459  157.2133 N.3     1  UNL1       -0.2736
     12 C         144.6012  141.2609  155.9201 C.3     1  UNL1        0.0758
     13 C         145.3088  141.5370  154.6267 C.3     1  UNL1        0.0609
     14 C         146.6013  142.2982  154.6264 C.3     1  UNL1        0.1687
     15 C         147.1862  142.7833  155.9196 C.3     1  UNL1        0.0609
     16 C         146.4787  142.5071  157.2131 C.3     1  UNL1        0.0758
     17 O         147.3088  142.5743  153.3329 O.3     1  UNL1       -0.4790
     18 C         148.8069  142.5296  153.2730 C.ar    1  UNL1        0.1393
     19 C         149.5885  143.7970  153.0914 C.ar    1  UNL1        0.0378
     20 C         151.0866  143.7522  153.0315 C.ar    1  UNL1        0.0154
     21 C         151.8032  142.4401  153.1534 C.ar    1  UNL1        0.0684
     22 CL        153.3013  142.3954  153.0935 Cl      1  UNL1       -0.0814
     23 C         151.0217  141.1727  153.3350 C.ar    1  UNL1        0.0712
     24 CL        151.7383  139.8606  153.4568 Cl      1  UNL1       -0.0813
     25 C         149.5236  141.2175  153.3949 C.ar    1  UNL1        0.0491
     26 S         141.6962  141.3725  164.7916 S.O2    1  UNL1        0.0768
     27 O         142.9394  140.7333  165.3352 O.2     1  UNL1       -0.1498
     28 O         140.4529  142.0118  164.2481 O.2     1  UNL1       -0.1498
     29 C         140.9886  141.0965  166.0852 C.ar    1  UNL1        0.1253
     30 C         140.0237  139.9523  166.1829 C.ar    1  UNL1        0.0211
     31 C         139.3161  139.6763  167.4764 C.ar    1  UNL1        0.0128
     32 C         139.5736  140.5445  168.6722 C.ar    1  UNL1        0.0578
     33 CL        138.8660  140.2684  169.9658 Cl      1  UNL1       -0.0822
     34 C         140.5385  141.6887  168.5745 C.ar    1  UNL1        0.0128
     35 C         141.2460  141.9647  167.2810 C.ar    1  UNL1        0.0211
@<TRIPOS>BOND
     1     1     2    2
     2     2     3   am
     3     3    26    1
     4    26    27    2
     5    26    28    2
     6    26    29    1
     7    29    30   ar
     8    30    31   ar
     9    31    32   ar
    10    32    33    1
    11    32    34   ar
    12    34    35   ar
    13     2     4   am
    14     4     5    1
    15     5     6    1
    16     6     7    1
    17     7    11    1
    18    11    12    1
    19    12    13    1
    20    13    14    1
    21    14    17    1
    22    17    18    1
    23    18    19   ar
    24    19    20   ar
    25    20    21   ar
    26    21    22    1
    27    21    23   ar
    28    23    24    1
    29    23    25   ar
    30    14    15    1
    31    15    16    1
    32     7     8    1
    33     8     9    1
    34    35    29   ar
    35     9     4    1
    36    16    11    1
    37    25    18   ar
    38     3    10    1
@<TRIPOS>MOLECULE
*****
 35 38 0 0 0
SMALL
GASTEIGER

@<TRIPOS>ATOM
      1 O         138.9526  141.5142  162.1671 O.2     1  UNL1       -0.2510
      2 C         139.7497  142.7771  162.0271 C.2     1  UNL1        0.3226
      3 N         140.4067  143.3866  163.2299 N.am    1  UNL1       -0.1691
      4 N         139.8899  143.4306  160.6841 N.am    1  UNL1       -0.2629
      5 C         140.6869  144.6935  160.5441 C.3     1  UNL1        0.0964
      6 C         140.8271  145.3469  159.2012 C.3     1  UNL1        0.0376
      7 C         140.1701  144.7374  157.9984 C.3     1  UNL1        0.0609
      8 C         139.3730  143.4745  158.1384 C.3     1  UNL1        0.0376
      9 C         139.2329  142.8211  159.4812 C.3     1  UNL1        0.0964
     10 H         140.9298  144.2155  163.1380 H       1  UNL1        0.1781
     11 N         140.3103  145.3909  156.6554 N.3     1  UNL1       -0.2736
     12 C         141.2504  144.8176  155.6368 C.3     1  UNL1        0.0758
     13 C         141.3905  145.4711  154.2940 C.3     1  UNL1        0.0609
     14 C         140.5905  146.6979  153.9697 C.3     1  UNL1        0.1687
     15 C         139.6504  147.2711  154.9883 C.3     1  UNL1        0.0609
     16 C         139.5103  146.6177  156.3312 C.3     1  UNL1        0.0758
     17 O         140.7307  147.3513  152.6268 O.3     1  UNL1       -0.4790
     18 C         141.0334  148.8175  152.5341 C.ar    1  UNL1        0.1393
     19 C         139.9208  149.8200  152.6204 C.ar    1  UNL1        0.0378
     20 C         140.2236  151.2862  152.5277 C.ar    1  UNL1        0.0154
     21 C         141.6388  151.7500  152.3487 C.ar    1  UNL1        0.0684
     22 CL        141.9415  153.2162  152.2560 Cl      1  UNL1       -0.0814
     23 C         142.7513  150.7475  152.2625 C.ar    1  UNL1        0.0712
     24 CL        144.1665  151.2113  152.0835 Cl      1  UNL1       -0.0813
     25 C         142.4486  149.2814  152.3552 C.ar    1  UNL1        0.0491
     26 S         140.2665  142.7332  164.5728 S.O2    1  UNL1        0.0768
     27 O         139.0071  143.5097  164.8192 O.2     1  UNL1       -0.1498
     28 O         141.5260  141.9567  164.3264 O.2     1  UNL1       -0.1498
     29 C         140.1264  142.0797  165.9157 C.ar    1  UNL1        0.1253
     30 C         140.5565  142.8097  167.1535 C.ar    1  UNL1        0.0211
     31 C         140.4164  142.1562  168.4964 C.ar    1  UNL1        0.0128
     32 C         139.8462  140.7728  168.6014 C.ar    1  UNL1        0.0578
     33 CL        139.7061  140.1193  169.9444 Cl      1  UNL1       -0.0822
     34 C         139.4161  140.0429  167.3637 C.ar    1  UNL1        0.0128
     35 C         139.5562  140.6963  166.0208 C.ar    1  UNL1        0.0211
@<TRIPOS>BOND
     1     1     2    2
     2     2     3   am
     3     3    26    1
     4    26    27    2
     5    26    28    2
     6    26    29    1
     7    29    30   ar
     8    30    31   ar
     9    31    32   ar
    10    32    33    1
    11    32    34   ar
    12    34    35   ar
    13     2     4   am
    14     4     5    1
    15     5     6    1
    16     6     7    1
    17     7    11    1
    18    11    12    1
    19    12    13    1
    20    13    14    1
    21    14    17    1
    22    17    18    1
    23    18    19   ar
    24    19    20   ar
    25    20    21   ar
    26    21    22    1
    27    21    23   ar
    28    23    24    1
    29    23    25   ar
    30    14    15    1
    31    15    16    1
    32     7     8    1
    33     8     9    1
    34    35    29   ar
    35     9     4    1
    36    16    11    1
    37    25    18   ar
    38     3    10    1
@<TRIPOS>MOLECULE
*****
 35 38 0 0 0
SMALL
GASTEIGER

@<TRIPOS>ATOM
      1 O         144.8759  136.7910  155.6465 O.2     1  UNL1       -0.2510
      2 C         143.4205  137.1451  155.7263 C.2     1  UNL1        0.3226
      3 N         142.4162  136.1045  156.1244 N.am    1  UNL1       -0.1691
      4 N         142.9693  138.5398  155.4080 N.am    1  UNL1       -0.2629
      5 C         141.5139  138.8939  155.4879 C.3     1  UNL1        0.0964
      6 C         141.0629  140.2886  155.1696 C.3     1  UNL1        0.0376
      7 C         142.0672  141.3292  154.7715 C.3     1  UNL1        0.0609
      8 C         143.5226  140.9751  154.6916 C.3     1  UNL1        0.0376
      9 C         143.9736  139.5804  155.0099 C.3     1  UNL1        0.0964
     10 H         141.4610  136.3369  156.1768 H       1  UNL1        0.1781
     11 N         141.6160  142.7239  154.4532 N.3     1  UNL1       -0.2736
     12 C         142.4863  143.8930  154.8078 C.3     1  UNL1        0.0758
     13 C         142.0351  145.2876  154.4895 C.3     1  UNL1        0.0609
     14 C         140.7136  145.5132  153.8166 C.3     1  UNL1        0.1687
     15 C         139.8433  144.3441  153.4620 C.3     1  UNL1        0.0609
     16 C         140.2945  142.9495  153.7803 C.3     1  UNL1        0.0758
     17 O         140.2625  146.9079  153.4983 O.3     1  UNL1       -0.4790
     18 C         139.7032  147.7810  154.5823 C.ar    1  UNL1        0.1393
     19 C         139.3531  147.1899  155.9157 C.ar    1  UNL1        0.0378
     20 C         138.7938  148.0630  156.9996 C.ar    1  UNL1        0.0154
     21 C         138.5846  149.5272  156.7501 C.ar    1  UNL1        0.0684
     22 CL        138.0253  150.4003  157.8340 Cl      1  UNL1       -0.0814
     23 C         138.9346  150.1183  155.4167 C.ar    1  UNL1        0.0712
     24 CL        138.7253  151.5825  155.1672 Cl      1  UNL1       -0.0813
     25 C         139.4939  149.2453  154.3328 C.ar    1  UNL1        0.0491
     26 S         142.8673  134.7098  156.4427 S.O2    1  UNL1        0.0768
     27 O         143.1463  135.1229  157.8574 O.2     1  UNL1       -0.1498
     28 O         142.5883  134.2967  155.0280 O.2     1  UNL1       -0.1498
     29 C         143.3184  133.3150  156.7609 C.ar    1  UNL1        0.1253
     30 C         142.5066  132.1408  156.3004 C.ar    1  UNL1        0.0211
     31 C         142.9577  130.7461  156.6187 C.ar    1  UNL1        0.0128
     32 C         144.2207  130.5257  157.3974 C.ar    1  UNL1        0.0578
     33 CL        144.6718  129.1309  157.7157 Cl      1  UNL1       -0.0822
     34 C         145.0325  131.6999  157.8579 C.ar    1  UNL1        0.0128
     35 C         144.5813  133.0946  157.5397 C.ar    1  UNL1        0.0211
@<TRIPOS>BOND
     1     1     2    2
     2     2     3   am
     3     3    26    1
     4    26    27    2
     5    26    28    2
     6    26    29    1
     7    29    30   ar
     8    30    31   ar
     9    31    32   ar
    10    32    33    1
    11    32    34   ar
    12    34    35   ar
    13     2     4   am
    14     4     5    1
    15     5     6    1
    16     6     7    1
    17     7    11    1
    18    11    12    1
    19    12    13    1
    20    13    14    1
    21    14    17    1
    22    17    18    1
    23    18    19   ar
    24    19    20   ar
    25    20    21   ar
    26    21    22    1
    27    21    23   ar
    28    23    24    1
    29    23    25   ar
    30    14    15    1
    31    15    16    1
    32     7     8    1
    33     8     9    1
    34    35    29   ar
    35     9     4    1
    36    16    11    1
    37    25    18   ar
    38     3    10    1
