@<TRIPOS>MOLECULE
*****
 28 30 0 0 0
SMALL
GASTEIGER

@<TRIPOS>ATOM
      1 C         141.4089  144.9831  159.3920 C.ar    1  UNL1        0.1057
      2 C         140.6111  145.5252  160.5408 C.ar    1  UNL1        0.0183
      3 C         140.8869  145.0493  161.9363 C.ar    1  UNL1        0.0013
      4 C         141.9605  144.0313  162.1830 C.ar    1  UNL1        0.0001
      5 C         142.7583  143.4892  161.0343 C.ar    1  UNL1        0.0013
      6 C         142.4825  143.9651  159.6388 C.ar    1  UNL1        0.0183
      7 C         142.2363  143.5553  163.5785 C.ar    1  UNL1       -0.0000
      8 C         143.6463  143.2882  164.0149 C.ar    1  UNL1       -0.0003
      9 C         143.9221  142.8123  165.4104 C.ar    1  UNL1       -0.0042
     10 C         142.7879  142.6034  166.3695 C.ar    1  UNL1       -0.0208
     11 C         141.3779  142.8705  165.9331 C.ar    1  UNL1       -0.0042
     12 C         141.1021  143.3464  164.5376 C.ar    1  UNL1       -0.0003
     13 C         143.0637  142.1275  167.7650 C.3     1  UNL1        0.0437
     14 C         142.6252  140.7576  168.1906 C.3     1  UNL1        0.0768
     15 N         141.1945  140.5116  168.5681 N.3     1  UNL1       -0.2737
     16 C         140.5612  140.8422  169.8871 C.3     1  UNL1        0.0721
     17 C         139.1212  140.4267  169.8270 C.3     1  UNL1        0.0187
     18 C         138.8644  139.8394  168.4709 C.3     1  UNL1        0.0174
     19 C         140.1457  139.8918  167.6928 C.3     1  UNL1        0.0576
     20 C         140.3436  139.4093  166.2864 C.3     1  UNL1        0.0173
     21 S         141.1331  145.4591  157.9965 S.O2    1  UNL1        0.0087
     22 O         139.8106  144.7515  158.0166 O.2     1  UNL1       -0.1686
     23 O         142.4556  146.1667  157.9765 O.2     1  UNL1       -0.1686
     24 C         140.8573  145.9350  156.6010 C.3     1  UNL1        0.1585
     25 C         139.4573  146.2832  156.1903 C.3     1  UNL1        0.0578
     26 C         139.1401  147.6668  155.7055 C.3     1  UNL1        0.1441
     27 C         138.4003  150.1049  156.2140 C.3     1  UNL1        0.1741
     28 O         138.5658  148.6797  156.6513 O.3     1  UNL1       -0.3510
@<TRIPOS>BOND
     1    27    28    1
     2    28    26    1
     3    26    25    1
     4    25    24    1
     5    24    21    1
     6    21    22    2
     7    21    23    2
     8    21     1    1
     9     1     2   ar
    10     2     3   ar
    11     3     4   ar
    12     4     7    1
    13     7     8   ar
    14     8     9   ar
    15     9    10   ar
    16    10    13    1
    17    13    14    1
    18    14    15    1
    19    15    16    1
    20    16    17    1
    21    17    18    1
    22    18    19    1
    23    19    20    1
    24    10    11   ar
    25    11    12   ar
    26     4     5   ar
    27     5     6   ar
    28     6     1   ar
    29    12     7   ar
    30    19    15    1
@<TRIPOS>MOLECULE
*****
 28 30 0 0 0
SMALL
GASTEIGER

@<TRIPOS>ATOM
      1 C         141.7949  138.0123  158.5380 C.ar    1  UNL1        0.1057
      2 C         142.7590  137.8737  159.6788 C.ar    1  UNL1        0.0183
      3 C         142.3040  138.1441  161.0823 C.ar    1  UNL1        0.0013
      4 C         140.8849  138.5529  161.3451 C.ar    1  UNL1        0.0001
      5 C         139.9209  138.6915  160.2043 C.ar    1  UNL1        0.0013
      6 C         140.3759  138.4212  158.8008 C.ar    1  UNL1        0.0183
      7 C         140.4299  138.8233  162.7486 C.ar    1  UNL1       -0.0000
      8 C         141.2994  139.6153  163.6795 C.ar    1  UNL1       -0.0003
      9 C         140.8444  139.8857  165.0830 C.ar    1  UNL1       -0.0042
     10 C         139.5199  139.3639  165.5557 C.ar    1  UNL1       -0.0208
     11 C         138.6504  138.5718  164.6248 C.ar    1  UNL1       -0.0042
     12 C         139.1054  138.3015  163.2213 C.ar    1  UNL1       -0.0003
     13 C         139.0649  139.6342  166.9592 C.3     1  UNL1        0.0437
     14 C         140.0750  139.8671  168.0434 C.3     1  UNL1        0.0768
     15 N         140.0877  141.1681  168.7898 N.3     1  UNL1       -0.2737
     16 C         139.6578  141.3728  170.2122 C.3     1  UNL1        0.0721
     17 C         139.8369  142.8241  170.5464 C.3     1  UNL1        0.0187
     18 C         140.3776  143.5164  169.3304 C.3     1  UNL1        0.0174
     19 C         140.5326  142.4930  168.2448 C.3     1  UNL1        0.0576
     20 C         141.0428  142.7493  166.8578 C.3     1  UNL1        0.0173
     21 S         142.2499  137.7420  157.1345 S.O2    1  UNL1        0.0087
     22 O         140.9234  137.1135  156.8255 O.2     1  UNL1       -0.1686
     23 O         143.5764  138.3704  157.4435 O.2     1  UNL1       -0.1686
     24 C         142.7049  137.4717  155.7309 C.3     1  UNL1        0.1585
     25 C         143.9494  136.6705  155.4871 C.3     1  UNL1        0.0578
     26 C         143.8809  135.1727  155.4454 C.3     1  UNL1        0.1441
     27 C         143.5245  133.9864  157.7292 C.3     1  UNL1        0.1741
     28 O         142.9905  134.4356  156.4014 O.3     1  UNL1       -0.3510
@<TRIPOS>BOND
     1    27    28    1
     2    28    26    1
     3    26    25    1
     4    25    24    1
     5    24    21    1
     6    21    22    2
     7    21    23    2
     8    21     1    1
     9     1     2   ar
    10     2     3   ar
    11     3     4   ar
    12     4     7    1
    13     7     8   ar
    14     8     9   ar
    15     9    10   ar
    16    10    13    1
    17    13    14    1
    18    14    15    1
    19    15    16    1
    20    16    17    1
    21    17    18    1
    22    18    19    1
    23    19    20    1
    24    10    11   ar
    25    11    12   ar
    26     4     5   ar
    27     5     6   ar
    28     6     1   ar
    29    12     7   ar
    30    19    15    1
@<TRIPOS>MOLECULE
*****
 28 30 0 0 0
SMALL
GASTEIGER

@<TRIPOS>ATOM
      1 C         141.7515  138.0085  158.4138 C.ar    1  UNL1        0.1057
      2 C         140.3080  138.3840  158.5729 C.ar    1  UNL1        0.0183
      3 C         139.7234  138.5517  159.9441 C.ar    1  UNL1        0.0013
      4 C         140.5822  138.3438  161.1561 C.ar    1  UNL1        0.0001
      5 C         142.0257  137.9682  160.9970 C.ar    1  UNL1        0.0013
      6 C         142.6103  137.8006  159.6258 C.ar    1  UNL1        0.0183
      7 C         139.9976  138.5114  162.5273 C.ar    1  UNL1       -0.0000
      8 C         139.0608  139.6484  162.8093 C.ar    1  UNL1       -0.0003
      9 C         138.4761  139.8160  164.1805 C.ar    1  UNL1       -0.0042
     10 C         138.8283  138.8467  165.2696 C.ar    1  UNL1       -0.0208
     11 C         139.7652  137.7097  164.9876 C.ar    1  UNL1       -0.0042
     12 C         140.3498  137.5421  163.6164 C.ar    1  UNL1       -0.0003
     13 C         138.2437  139.0143  166.6408 C.3     1  UNL1        0.0437
     14 C         138.9888  139.7934  167.6837 C.3     1  UNL1        0.0768
     15 N         140.3866  140.2648  167.4116 N.3     1  UNL1       -0.2737
     16 C         141.6485  139.5559  167.8054 C.3     1  UNL1        0.0721
     17 C         142.8097  140.3808  167.3351 C.3     1  UNL1        0.0187
     18 C         142.2655  141.5996  166.6507 C.3     1  UNL1        0.0174
     19 C         140.7679  141.5279  166.6979 C.3     1  UNL1        0.0576
     20 C         139.8184  142.5413  166.1311 C.3     1  UNL1        0.0173
     21 S         142.3361  137.8409  157.0426 S.O2    1  UNL1        0.0087
     22 O         141.0779  137.1617  156.5892 O.2     1  UNL1       -0.1686
     23 O         143.5943  138.5200  157.4961 O.2     1  UNL1       -0.1686
     24 C         142.9207  137.6732  155.6714 C.3     1  UNL1        0.1585
     25 C         143.9185  136.5843  155.4095 C.3     1  UNL1        0.0578
     26 C         143.4477  135.2056  155.0528 C.3     1  UNL1        0.1441
     27 C         143.4290  134.1768  157.4384 C.3     1  UNL1        0.1741
     28 O         142.7911  134.3451  156.0913 O.3     1  UNL1       -0.3510
@<TRIPOS>BOND
     1    27    28    1
     2    28    26    1
     3    26    25    1
     4    25    24    1
     5    24    21    1
     6    21    22    2
     7    21    23    2
     8    21     1    1
     9     1     2   ar
    10     2     3   ar
    11     3     4   ar
    12     4     7    1
    13     7     8   ar
    14     8     9   ar
    15     9    10   ar
    16    10    13    1
    17    13    14    1
    18    14    15    1
    19    15    16    1
    20    16    17    1
    21    17    18    1
    22    18    19    1
    23    19    20    1
    24    10    11   ar
    25    11    12   ar
    26     4     5   ar
    27     5     6   ar
    28     6     1   ar
    29    12     7   ar
    30    19    15    1
@<TRIPOS>MOLECULE
*****
 28 30 0 0 0
SMALL
GASTEIGER

@<TRIPOS>ATOM
      1 C         140.3298  138.8151  160.0813 C.ar    1  UNL1        0.1057
      2 C         139.2271  138.0952  160.7994 C.ar    1  UNL1        0.0183
      3 C         139.0285  138.3050  162.2713 C.ar    1  UNL1        0.0013
      4 C         139.9326  139.2346  163.0251 C.ar    1  UNL1        0.0001
      5 C         141.0353  139.9546  162.3070 C.ar    1  UNL1        0.0013
      6 C         141.2339  139.7448  160.8351 C.ar    1  UNL1        0.0183
      7 C         139.7340  139.4444  164.4970 C.ar    1  UNL1       -0.0000
      8 C         138.5706  138.8051  165.1955 C.ar    1  UNL1       -0.0003
      9 C         138.3719  139.0149  166.6674 C.ar    1  UNL1       -0.0042
     10 C         139.3367  139.8639  167.4409 C.ar    1  UNL1       -0.0208
     11 C         140.5001  140.5031  166.7425 C.ar    1  UNL1       -0.0042
     12 C         140.6987  140.2934  165.2706 C.ar    1  UNL1       -0.0003
     13 C         139.1381  140.0736  168.9128 C.3     1  UNL1        0.0437
     14 C         140.2941  139.9163  169.8555 C.3     1  UNL1        0.0768
     15 N         141.4005  140.9292  169.8613 N.3     1  UNL1       -0.2737
     16 C         142.8454  140.6584  169.5633 C.3     1  UNL1        0.0721
     17 C         143.5940  141.9526  169.6838 C.3     1  UNL1        0.0187
     18 C         142.6118  143.0234  170.0563 C.3     1  UNL1        0.0174
     19 C         141.2560  142.3909  170.1660 C.3     1  UNL1        0.0576
     20 C         139.9800  143.0961  170.5185 C.3     1  UNL1        0.0173
     21 S         140.5284  138.6054  158.6093 S.O2    1  UNL1        0.0087
     22 O         141.9851  138.3356  158.8444 O.2     1  UNL1       -0.1686
     23 O         139.0717  138.8753  158.3743 O.2     1  UNL1       -0.1686
     24 C         140.7271  138.3957  157.1374 C.3     1  UNL1        0.1585
     25 C         140.5095  137.0384  156.5372 C.3     1  UNL1        0.0578
     26 C         141.4251  136.5397  155.4588 C.3     1  UNL1        0.1441
     27 C         143.9801  136.1442  155.7149 C.3     1  UNL1        0.1741
     28 O         142.5715  135.6368  155.8064 O.3     1  UNL1       -0.3510
@<TRIPOS>BOND
     1    27    28    1
     2    28    26    1
     3    26    25    1
     4    25    24    1
     5    24    21    1
     6    21    22    2
     7    21    23    2
     8    21     1    1
     9     1     2   ar
    10     2     3   ar
    11     3     4   ar
    12     4     7    1
    13     7     8   ar
    14     8     9   ar
    15     9    10   ar
    16    10    13    1
    17    13    14    1
    18    14    15    1
    19    15    16    1
    20    16    17    1
    21    17    18    1
    22    18    19    1
    23    19    20    1
    24    10    11   ar
    25    11    12   ar
    26     4     5   ar
    27     5     6   ar
    28     6     1   ar
    29    12     7   ar
    30    19    15    1
@<TRIPOS>MOLECULE
*****
 28 30 0 0 0
SMALL
GASTEIGER

@<TRIPOS>ATOM
      1 C         141.2677  145.0938  159.3401 C.ar    1  UNL1        0.1057
      2 C         140.2738  145.6957  160.2887 C.ar    1  UNL1        0.0183
      3 C         140.1953  145.2048  161.7039 C.ar    1  UNL1        0.0013
      4 C         141.1107  144.1120  162.1706 C.ar    1  UNL1        0.0001
      5 C         142.1046  143.5101  161.2220 C.ar    1  UNL1        0.0013
      6 C         142.1831  144.0010  159.8068 C.ar    1  UNL1        0.0183
      7 C         141.0322  143.6211  163.5858 C.ar    1  UNL1       -0.0000
      8 C         142.2562  143.0751  164.2593 C.ar    1  UNL1       -0.0003
      9 C         142.1777  142.5842  165.6745 C.ar    1  UNL1       -0.0042
     10 C         140.8751  142.6393  166.4162 C.ar    1  UNL1       -0.0208
     11 C         139.6511  143.1853  165.7428 C.ar    1  UNL1       -0.0042
     12 C         139.7296  143.6762  164.3275 C.ar    1  UNL1       -0.0003
     13 C         140.7966  142.1484  167.8315 C.3     1  UNL1        0.0437
     14 C         140.5790  140.6904  168.1086 C.3     1  UNL1        0.0768
     15 N         140.1047  139.7815  167.0137 N.3     1  UNL1       -0.2737
     16 C         138.6749  139.4781  166.6769 C.3     1  UNL1        0.0721
     17 C         138.6635  138.5254  165.5183 C.3     1  UNL1        0.0187
     18 C         140.0864  138.2400  165.1390 C.3     1  UNL1        0.0174
     19 C         140.9772  139.0163  166.0631 C.3     1  UNL1        0.0576
     20 C         142.4769  139.0257  166.0407 C.3     1  UNL1        0.0173
     21 S         141.3463  145.5846  157.9249 S.O2    1  UNL1        0.0087
     22 O         142.7373  145.0349  157.8114 O.2     1  UNL1       -0.1686
     23 O         139.9553  146.1343  158.0384 O.2     1  UNL1       -0.1686
     24 C         141.4248  146.0755  156.5097 C.3     1  UNL1        0.1585
     25 C         140.1714  146.4463  155.7738 C.3     1  UNL1        0.0578
     26 C         140.2528  147.2608  154.5168 C.3     1  UNL1        0.1441
     27 C         138.7663  149.0924  155.6056 C.3     1  UNL1        0.1741
     28 O         139.5224  148.5675  154.4212 O.3     1  UNL1       -0.3510
@<TRIPOS>BOND
     1    27    28    1
     2    28    26    1
     3    26    25    1
     4    25    24    1
     5    24    21    1
     6    21    22    2
     7    21    23    2
     8    21     1    1
     9     1     2   ar
    10     2     3   ar
    11     3     4   ar
    12     4     7    1
    13     7     8   ar
    14     8     9   ar
    15     9    10   ar
    16    10    13    1
    17    13    14    1
    18    14    15    1
    19    15    16    1
    20    16    17    1
    21    17    18    1
    22    18    19    1
    23    19    20    1
    24    10    11   ar
    25    11    12   ar
    26     4     5   ar
    27     5     6   ar
    28     6     1   ar
    29    12     7   ar
    30    19    15    1
@<TRIPOS>MOLECULE
*****
 28 30 0 0 0
SMALL
GASTEIGER

@<TRIPOS>ATOM
      1 C         142.2779  142.0554  167.2555 C.ar    1  UNL1        0.1057
      2 C         143.3809  142.3786  166.2918 C.ar    1  UNL1        0.0183
      3 C         143.0543  142.9308  164.9359 C.ar    1  UNL1        0.0013
      4 C         141.6248  143.1598  164.5438 C.ar    1  UNL1        0.0001
      5 C         140.5218  142.8365  165.5075 C.ar    1  UNL1        0.0013
      6 C         140.8484  142.2843  166.8634 C.ar    1  UNL1        0.0183
      7 C         141.2982  143.7120  163.1879 C.ar    1  UNL1       -0.0000
      8 C         141.5541  142.8880  161.9609 C.ar    1  UNL1       -0.0003
      9 C         141.2275  143.4402  160.6050 C.ar    1  UNL1       -0.0042
     10 C         140.6450  144.8164  160.4761 C.ar    1  UNL1       -0.0208
     11 C         140.3891  145.6404  161.7031 C.ar    1  UNL1       -0.0042
     12 C         140.7157  145.0882  163.0590 C.ar    1  UNL1       -0.0003
     13 C         140.3184  145.3686  159.1203 C.3     1  UNL1        0.0437
     14 C         141.4080  145.9339  158.2583 C.3     1  UNL1        0.0768
     15 N         141.3184  145.8203  156.7653 N.3     1  UNL1       -0.2737
     16 C         142.2507  145.0448  155.8825 C.3     1  UNL1        0.0721
     17 C         141.7892  145.2074  154.4645 C.3     1  UNL1        0.0187
     18 C         140.5716  146.0835  154.4710 C.3     1  UNL1        0.0174
     19 C         140.2806  146.4623  155.8929 C.3     1  UNL1        0.0576
     20 C         139.1504  147.3305  156.3604 C.3     1  UNL1        0.0173
     21 S         142.6045  141.5032  168.6114 S.O2    1  UNL1        0.0087
     22 O         143.2943  142.7866  168.9680 O.2     1  UNL1       -0.1686
     23 O         141.9148  140.2197  168.2548 O.2     1  UNL1       -0.1686
     24 C         142.9311  140.9509  169.9673 C.3     1  UNL1        0.1585
     25 C         141.8692  140.8811  171.0243 C.3     1  UNL1        0.0578
     26 C         140.8492  141.9752  171.1361 C.3     1  UNL1        0.1441
     27 C         139.0888  140.4565  169.9766 C.3     1  UNL1        0.1741
     28 O         139.4739  141.7790  170.5703 O.3     1  UNL1       -0.3510
@<TRIPOS>BOND
     1    27    28    1
     2    28    26    1
     3    26    25    1
     4    25    24    1
     5    24    21    1
     6    21    22    2
     7    21    23    2
     8    21     1    1
     9     1     2   ar
    10     2     3   ar
    11     3     4   ar
    12     4     7    1
    13     7     8   ar
    14     8     9   ar
    15     9    10   ar
    16    10    13    1
    17    13    14    1
    18    14    15    1
    19    15    16    1
    20    16    17    1
    21    17    18    1
    22    18    19    1
    23    19    20    1
    24    10    11   ar
    25    11    12   ar
    26     4     5   ar
    27     5     6   ar
    28     6     1   ar
    29    12     7   ar
    30    19    15    1
@<TRIPOS>MOLECULE
*****
 28 30 0 0 0
SMALL
GASTEIGER

@<TRIPOS>ATOM
      1 C         143.6910  140.8624  160.4199 C.ar    1  UNL1        0.1057
      2 C         144.1133  139.5384  160.9844 C.ar    1  UNL1        0.0183
      3 C         143.9244  139.2510  162.4444 C.ar    1  UNL1        0.0013
      4 C         143.3133  140.2875  163.3400 C.ar    1  UNL1        0.0001
      5 C         142.8911  141.6115  162.7755 C.ar    1  UNL1        0.0013
      6 C         143.0799  141.8990  161.3155 C.ar    1  UNL1        0.0183
      7 C         143.1245  140.0000  164.8000 C.ar    1  UNL1       -0.0000
      8 C         142.4632  141.0148  165.6848 C.ar    1  UNL1       -0.0003
      9 C         142.2743  140.7273  167.1448 C.ar    1  UNL1       -0.0042
     10 C         142.7468  139.4251  167.7201 C.ar    1  UNL1       -0.0208
     11 C         143.4082  138.4104  166.8353 C.ar    1  UNL1       -0.0042
     12 C         143.5970  138.6978  165.3753 C.ar    1  UNL1       -0.0003
     13 C         142.5580  139.1376  169.1801 C.3     1  UNL1        0.0437
     14 C         142.7498  140.2296  170.1904 C.3     1  UNL1        0.0768
     15 N         141.8832  141.4531  170.1462 N.3     1  UNL1       -0.2737
     16 C         142.3642  142.8730  170.0973 C.3     1  UNL1        0.0721
     17 C         141.1616  143.7689  170.0640 C.3     1  UNL1        0.0187
     18 C         139.9373  142.9027  170.0922 C.3     1  UNL1        0.0174
     19 C         140.3832  141.4714  170.1430 C.3     1  UNL1        0.0576
     20 C         139.4867  140.2696  170.1835 C.3     1  UNL1        0.0173
     21 S         143.8798  141.1499  158.9599 S.O2    1  UNL1        0.0087
     22 O         144.0620  139.6848  158.6949 O.2     1  UNL1       -0.1686
     23 O         143.6977  142.6150  159.2248 O.2     1  UNL1       -0.1686
     24 C         144.0687  141.4374  157.4998 C.3     1  UNL1        0.1585
     25 C         144.7975  140.4561  156.6304 C.3     1  UNL1        0.0578
     26 C         145.5881  140.9413  155.4516 C.3     1  UNL1        0.1441
     27 C         147.5979  142.4871  156.0189 C.3     1  UNL1        0.1741
     28 O         147.0675  141.1552  155.5776 O.3     1  UNL1       -0.3510
@<TRIPOS>BOND
     1    27    28    1
     2    28    26    1
     3    26    25    1
     4    25    24    1
     5    24    21    1
     6    21    22    2
     7    21    23    2
     8    21     1    1
     9     1     2   ar
    10     2     3   ar
    11     3     4   ar
    12     4     7    1
    13     7     8   ar
    14     8     9   ar
    15     9    10   ar
    16    10    13    1
    17    13    14    1
    18    14    15    1
    19    15    16    1
    20    16    17    1
    21    17    18    1
    22    18    19    1
    23    19    20    1
    24    10    11   ar
    25    11    12   ar
    26     4     5   ar
    27     5     6   ar
    28     6     1   ar
    29    12     7   ar
    30    19    15    1
@<TRIPOS>MOLECULE
*****
 28 30 0 0 0
SMALL
GASTEIGER

@<TRIPOS>ATOM
      1 C         142.8468  140.5713  167.3427 C.ar    1  UNL1        0.1057
      2 C         142.8174  139.1029  167.0384 C.ar    1  UNL1        0.0183
      3 C         142.7922  138.6324  165.6143 C.ar    1  UNL1        0.0013
      4 C         142.7964  139.6304  164.4945 C.ar    1  UNL1        0.0001
      5 C         142.8258  141.0989  164.7988 C.ar    1  UNL1        0.0013
      6 C         142.8510  141.5693  166.2229 C.ar    1  UNL1        0.0183
      7 C         142.7712  139.1599  163.0704 C.ar    1  UNL1       -0.0000
      8 C         141.4658  139.0507  162.3396 C.ar    1  UNL1       -0.0003
      9 C         141.4406  138.5802  160.9156 C.ar    1  UNL1       -0.0042
     10 C         142.7207  138.2190  160.2223 C.ar    1  UNL1       -0.0208
     11 C         144.0261  138.3282  160.9530 C.ar    1  UNL1       -0.0042
     12 C         144.0513  138.7987  162.3771 C.ar    1  UNL1       -0.0003
     13 C         142.6955  137.7485  158.7982 C.3     1  UNL1        0.0437
     14 C         142.4817  138.7329  157.6868 C.3     1  UNL1        0.0768
     15 N         143.6524  139.4566  157.0903 N.3     1  UNL1       -0.2737
     16 C         144.3562  139.0951  155.8160 C.3     1  UNL1        0.0721
     17 C         145.4636  140.0839  155.6015 C.3     1  UNL1        0.0187
     18 C         145.4442  141.0565  156.7433 C.3     1  UNL1        0.0174
     19 C         144.3248  140.6688  157.6635 C.3     1  UNL1        0.0576
     20 C         143.9446  141.3701  158.9337 C.3     1  UNL1        0.0173
     21 S         142.8720  141.0418  168.7668 S.O2    1  UNL1        0.0087
     22 O         142.8404  142.4659  168.2968 O.2     1  UNL1       -0.1686
     23 O         142.9037  139.6177  169.2367 O.2     1  UNL1       -0.1686
     24 C         142.8972  141.5123  170.1909 C.3     1  UNL1        0.1585
     25 C         141.7920  141.1253  171.1282 C.3     1  UNL1        0.0578
     26 C         140.5674  141.9844  171.2392 C.3     1  UNL1        0.1441
     27 C         139.1293  140.3885  169.7780 C.3     1  UNL1        0.1741
     28 O         139.4087  141.7618  170.3129 O.3     1  UNL1       -0.3510
@<TRIPOS>BOND
     1    27    28    1
     2    28    26    1
     3    26    25    1
     4    25    24    1
     5    24    21    1
     6    21    22    2
     7    21    23    2
     8    21     1    1
     9     1     2   ar
    10     2     3   ar
    11     3     4   ar
    12     4     7    1
    13     7     8   ar
    14     8     9   ar
    15     9    10   ar
    16    10    13    1
    17    13    14    1
    18    14    15    1
    19    15    16    1
    20    16    17    1
    21    17    18    1
    22    18    19    1
    23    19    20    1
    24    10    11   ar
    25    11    12   ar
    26     4     5   ar
    27     5     6   ar
    28     6     1   ar
    29    12     7   ar
    30    19    15    1
@<TRIPOS>MOLECULE
*****
 28 30 0 0 0
SMALL
GASTEIGER

@<TRIPOS>ATOM
      1 C         142.2297  142.0261  167.2627 C.ar    1  UNL1        0.1057
      2 C         143.3208  142.3095  166.2732 C.ar    1  UNL1        0.0183
      3 C         142.9832  142.8786  164.9270 C.ar    1  UNL1        0.0013
      4 C         141.5546  143.1643  164.5703 C.ar    1  UNL1        0.0001
      5 C         140.4635  142.8809  165.5598 C.ar    1  UNL1        0.0013
      6 C         140.8011  142.3118  166.9060 C.ar    1  UNL1        0.0183
      7 C         141.2170  143.7334  163.2242 C.ar    1  UNL1       -0.0000
      8 C         140.7931  145.1669  163.1008 C.ar    1  UNL1       -0.0003
      9 C         140.4555  145.7360  161.7546 C.ar    1  UNL1       -0.0042
     10 C         140.5418  144.8716  160.5318 C.ar    1  UNL1       -0.0208
     11 C         140.9657  143.4381  160.6552 C.ar    1  UNL1       -0.0042
     12 C         141.3033  142.8690  162.0014 C.ar    1  UNL1       -0.0003
     13 C         140.2042  145.4407  159.1857 C.3     1  UNL1        0.0437
     14 C         140.4300  144.6239  157.9480 C.3     1  UNL1        0.0768
     15 N         139.3546  144.5272  156.9067 N.3     1  UNL1       -0.2737
     16 C         138.4630  143.3450  156.6673 C.3     1  UNL1        0.0721
     17 C         137.5394  143.6828  155.5346 C.3     1  UNL1        0.0187
     18 C         137.8603  145.0738  155.0740 C.3     1  UNL1        0.0174
     19 C         138.9822  145.5957  155.9220 C.3     1  UNL1        0.0576
     20 C         139.6196  146.9484  155.8057 C.3     1  UNL1        0.0173
     21 S         142.5673  141.4570  168.6088 S.O2    1  UNL1        0.0087
     22 O         143.2466  142.7414  168.9815 O.2     1  UNL1       -0.1686
     23 O         141.8880  140.1726  168.2362 O.2     1  UNL1       -0.1686
     24 C         142.9049  140.8879  169.9550 C.3     1  UNL1        0.1585
     25 C         141.8637  140.8456  171.0339 C.3     1  UNL1        0.0578
     26 C         140.8433  141.9404  171.1349 C.3     1  UNL1        0.1441
     27 C         139.0930  140.4247  169.9561 C.3     1  UNL1        0.1741
     28 O         139.4787  141.7508  170.5415 O.3     1  UNL1       -0.3510
@<TRIPOS>BOND
     1    27    28    1
     2    28    26    1
     3    26    25    1
     4    25    24    1
     5    24    21    1
     6    21    22    2
     7    21    23    2
     8    21     1    1
     9     1     2   ar
    10     2     3   ar
    11     3     4   ar
    12     4     7    1
    13     7     8   ar
    14     8     9   ar
    15     9    10   ar
    16    10    13    1
    17    13    14    1
    18    14    15    1
    19    15    16    1
    20    16    17    1
    21    17    18    1
    22    18    19    1
    23    19    20    1
    24    10    11   ar
    25    11    12   ar
    26     4     5   ar
    27     5     6   ar
    28     6     1   ar
    29    12     7   ar
    30    19    15    1
