@<TRIPOS>MOLECULE
*****
 25 27 0 0 0
SMALL
GASTEIGER

@<TRIPOS>ATOM
      1 C         143.3377  138.6278  162.6515 C.ar    1  UNL1        0.0395
      2 C         144.4836  139.2643  163.3806 C.ar    1  UNL1        0.0063
      3 C         144.4996  139.2848  164.8804 C.ar    1  UNL1        0.0376
      4 C         143.3697  138.6687  165.6510 C.ar    1  UNL1        0.1453
      5 C         142.2238  138.0322  164.9218 C.ar    1  UNL1        0.0376
      6 C         142.2078  138.0117  163.4221 C.ar    1  UNL1        0.0063
      7 N         142.8817  137.9514  158.8567 N.ar    1  UNL1       -0.1509
      8 N         143.7122  139.2003  158.8308 N.ar    1  UNL1       -0.0451
      9 N         143.9840  139.6057  160.2491 N.ar    1  UNL1       -0.1077
     10 C         143.3216  138.6073  161.1517 C.ar    1  UNL1        0.2058
     11 N         142.6404  137.5849  160.2911 N.ar    1  UNL1       -0.1297
     12 C         142.3806  137.2007  157.6586 C.3     1  UNL1        0.1517
     13 C         143.3033  136.9196  156.5098 C.3     1  UNL1        0.0342
     14 C         143.5707  135.5041  156.0916 C.3     1  UNL1        0.0438
     15 O         142.0726  133.4119  156.4492 O.co2   1  UNL1       -0.5492
     16 C         143.1120  134.3673  156.9560 C.2     1  UNL1        0.0504
     17 O         143.6926  134.1859  158.3270 O.co2   1  UNL1       -0.5492
     18 O         143.3858  138.6892  167.1508 O.3     1  UNL1       -0.4535
     19 C         142.5645  139.6993  167.8959 C.ar    1  UNL1        0.1454
     20 C         142.0639  139.3885  169.2753 C.ar    1  UNL1        0.0384
     21 C         141.2426  140.3987  170.0204 C.ar    1  UNL1        0.0145
     22 C         140.9220  141.7196  169.3861 C.ar    1  UNL1        0.0579
     23 CL        140.1008  142.7296  170.1312 Cl      1  UNL1       -0.0822
     24 C         141.4226  142.0304  168.0067 C.ar    1  UNL1        0.0145
     25 C         142.2439  141.0203  167.2616 C.ar    1  UNL1        0.0384
@<TRIPOS>UNITY_ATOM_ATTR
15 1
charge -1
@<TRIPOS>BOND
     1    15    16   ar
     2    16    17   ar
     3    16    14    1
     4    14    13    1
     5    13    12    1
     6    12     7    1
     7     7     8   ar
     8     8     9   ar
     9     9    10   ar
    10    10     1    1
    11     1     2   ar
    12     2     3   ar
    13     3     4   ar
    14     4    18    1
    15    18    19    1
    16    19    20   ar
    17    20    21   ar
    18    21    22   ar
    19    22    23    1
    20    22    24   ar
    21    24    25   ar
    22     4     5   ar
    23     5     6   ar
    24    10    11   ar
    25    11     7   ar
    26     6     1   ar
    27    25    19   ar
@<TRIPOS>MOLECULE
*****
 25 27 0 0 0
SMALL
GASTEIGER

@<TRIPOS>ATOM
      1 C         143.2033  138.7427  162.5137 C.ar    1  UNL1        0.0395
      2 C         144.3298  139.4088  163.2466 C.ar    1  UNL1        0.0063
      3 C         144.3816  139.3613  164.7449 C.ar    1  UNL1        0.0376
      4 C         143.3069  138.6478  165.5103 C.ar    1  UNL1        0.1453
      5 C         142.1804  137.9816  164.7774 C.ar    1  UNL1        0.0376
      6 C         142.1286  138.0291  163.2791 C.ar    1  UNL1        0.0063
      7 N         142.3714  138.5951  158.7253 N.ar    1  UNL1       -0.1509
      8 N         143.7720  139.1311  158.6938 N.ar    1  UNL1       -0.0451
      9 N         144.2541  139.2516  160.1091 N.ar    1  UNL1       -0.1077
     10 C         143.1514  138.7901  161.0153 C.ar    1  UNL1        0.2058
     11 N         141.9879  138.3843  160.1601 N.ar    1  UNL1       -0.1297
     12 C         141.5062  138.3184  157.5316 C.3     1  UNL1        0.1517
     13 C         141.6090  137.0021  156.8197 C.3     1  UNL1        0.0342
     14 C         142.7938  136.1127  157.0550 C.3     1  UNL1        0.0438
     15 O         144.7336  137.0803  155.6230 O.co2   1  UNL1       -0.5492
     16 C         143.8271  135.9402  155.9815 C.2     1  UNL1        0.0504
     17 O         143.9539  134.6278  155.2665 O.co2   1  UNL1       -0.5492
     18 O         143.3588  138.6003  167.0087 O.3     1  UNL1       -0.4535
     19 C         142.4392  139.4653  167.8188 C.ar    1  UNL1        0.1454
     20 C         141.6793  140.5770  167.1579 C.ar    1  UNL1        0.0384
     21 C         140.7597  141.4419  167.9680 C.ar    1  UNL1        0.0145
     22 C         140.6001  141.1953  169.4389 C.ar    1  UNL1        0.0579
     23 CL        139.6805  142.0602  170.2489 Cl      1  UNL1       -0.0822
     24 C         141.3600  140.0836  170.0998 C.ar    1  UNL1        0.0145
     25 C         142.2796  139.2186  169.2898 C.ar    1  UNL1        0.0384
@<TRIPOS>UNITY_ATOM_ATTR
15 1
charge -1
@<TRIPOS>BOND
     1    15    16   ar
     2    16    17   ar
     3    16    14    1
     4    14    13    1
     5    13    12    1
     6    12     7    1
     7     7     8   ar
     8     8     9   ar
     9     9    10   ar
    10    10     1    1
    11     1     2   ar
    12     2     3   ar
    13     3     4   ar
    14     4    18    1
    15    18    19    1
    16    19    20   ar
    17    20    21   ar
    18    21    22   ar
    19    22    23    1
    20    22    24   ar
    21    24    25   ar
    22     4     5   ar
    23     5     6   ar
    24    10    11   ar
    25    11     7   ar
    26     6     1   ar
    27    25    19   ar
@<TRIPOS>MOLECULE
*****
 25 27 0 0 0
SMALL
GASTEIGER

@<TRIPOS>ATOM
      1 C         138.6135  139.1261  162.9246 C.ar    1  UNL1        0.0395
      2 C         139.0026  137.8753  163.6555 C.ar    1  UNL1        0.0063
      3 C         138.9621  137.8393  165.1545 C.ar    1  UNL1        0.0376
      4 C         138.5325  139.0540  165.9225 C.ar    1  UNL1        0.1453
      5 C         138.1434  140.3048  165.1916 C.ar    1  UNL1        0.0376
      6 C         138.1839  140.3408  163.6926 C.ar    1  UNL1        0.0063
      7 N         139.2820  138.7252  159.1222 N.ar    1  UNL1       -0.1509
      8 N         138.1507  139.7101  159.1153 N.ar    1  UNL1       -0.0451
      9 N         137.7626  139.9802  160.5388 N.ar    1  UNL1       -0.1077
     10 C         138.6541  139.1621  161.4255 C.ar    1  UNL1        0.2058
     11 N         139.5931  138.3865  160.5500 N.ar    1  UNL1       -0.1297
     12 C         139.9798  138.1754  157.9135 C.3     1  UNL1        0.1517
     13 C         141.4747  138.0523  157.9017 C.3     1  UNL1        0.0342
     14 C         142.3293  139.2768  158.0445 C.3     1  UNL1        0.0438
     15 O         142.1406  140.6778  160.2243 O.co2   1  UNL1       -0.5492
     16 C         142.8663  139.6637  159.3906 C.2     1  UNL1        0.0504
     17 O         144.1288  139.0366  159.9029 O.co2   1  UNL1       -0.5492
     18 O         138.4919  139.0180  167.4216 O.3     1  UNL1       -0.4535
     19 C         139.4414  139.8630  168.2181 C.ar    1  UNL1        0.1454
     20 C         140.7973  140.1908  167.6666 C.ar    1  UNL1        0.0384
     21 C         141.7467  141.0359  168.4632 C.ar    1  UNL1        0.0145
     22 C         141.3402  141.5532  169.8111 C.ar    1  UNL1        0.0579
     23 CL        142.2897  142.3983  170.6076 Cl      1  UNL1       -0.0822
     24 C         139.9843  141.2255  170.3626 C.ar    1  UNL1        0.0145
     25 C         139.0349  140.3804  169.5662 C.ar    1  UNL1        0.0384
@<TRIPOS>UNITY_ATOM_ATTR
15 1
charge -1
@<TRIPOS>BOND
     1    15    16   ar
     2    16    17   ar
     3    16    14    1
     4    14    13    1
     5    13    12    1
     6    12     7    1
     7     7     8   ar
     8     8     9   ar
     9     9    10   ar
    10    10     1    1
    11     1     2   ar
    12     2     3   ar
    13     3     4   ar
    14     4    18    1
    15    18    19    1
    16    19    20   ar
    17    20    21   ar
    18    21    22   ar
    19    22    23    1
    20    22    24   ar
    21    24    25   ar
    22     4     5   ar
    23     5     6   ar
    24    10    11   ar
    25    11     7   ar
    26     6     1   ar
    27    25    19   ar
@<TRIPOS>MOLECULE
*****
 25 27 0 0 0
SMALL
GASTEIGER

@<TRIPOS>ATOM
      1 C         138.7301  139.1023  162.7039 C.ar    1  UNL1        0.0395
      2 C         139.1478  137.8930  163.4868 C.ar    1  UNL1        0.0063
      3 C         139.0317  137.8909  164.9823 C.ar    1  UNL1        0.0376
      4 C         138.4979  139.0981  165.6948 C.ar    1  UNL1        0.1453
      5 C         138.0801  140.3074  164.9119 C.ar    1  UNL1        0.0376
      6 C         138.1962  140.3095  163.4164 C.ar    1  UNL1        0.0063
      7 N         139.6113  138.6425  158.9519 N.ar    1  UNL1       -0.1509
      8 N         138.4381  139.5730  158.8621 N.ar    1  UNL1       -0.0451
      9 N         137.9653  139.8584  160.2567 N.ar    1  UNL1       -0.1077
     10 C         138.8462  139.1044  161.2083 C.ar    1  UNL1        0.2058
     11 N         139.8635  138.3530  160.4019 N.ar    1  UNL1       -0.1297
     12 C         140.3948  138.0974  157.7947 C.3     1  UNL1        0.1517
     13 C         141.8940  138.0853  157.8432 C.3     1  UNL1        0.0342
     14 C         142.6588  137.0110  157.1283 C.3     1  UNL1        0.0438
     15 O         142.3929  137.5714  154.6054 O.co2   1  UNL1       -0.5492
     16 C         143.2717  137.2919  155.7884 C.2     1  UNL1        0.0504
     17 O         144.7634  137.2933  155.6315 O.co2   1  UNL1       -0.5492
     18 O         138.3818  139.0959  167.1904 O.3     1  UNL1       -0.4535
     19 C         139.3767  139.8510  168.0209 C.ar    1  UNL1        0.1454
     20 C         139.0295  140.2564  169.4228 C.ar    1  UNL1        0.0384
     21 C         140.0245  141.0116  170.2534 C.ar    1  UNL1        0.0145
     22 C         141.3666  141.3613  169.6821 C.ar    1  UNL1        0.0579
     23 CL        142.3616  142.1164  170.5126 Cl      1  UNL1       -0.0822
     24 C         141.7138  140.9559  168.2802 C.ar    1  UNL1        0.0145
     25 C         140.7189  140.2008  167.4497 C.ar    1  UNL1        0.0384
@<TRIPOS>UNITY_ATOM_ATTR
15 1
charge -1
@<TRIPOS>BOND
     1    15    16   ar
     2    16    17   ar
     3    16    14    1
     4    14    13    1
     5    13    12    1
     6    12     7    1
     7     7     8   ar
     8     8     9   ar
     9     9    10   ar
    10    10     1    1
    11     1     2   ar
    12     2     3   ar
    13     3     4   ar
    14     4    18    1
    15    18    19    1
    16    19    20   ar
    17    20    21   ar
    18    21    22   ar
    19    22    23    1
    20    22    24   ar
    21    24    25   ar
    22     4     5   ar
    23     5     6   ar
    24    10    11   ar
    25    11     7   ar
    26     6     1   ar
    27    25    19   ar
@<TRIPOS>MOLECULE
*****
 25 27 0 0 0
SMALL
GASTEIGER

@<TRIPOS>ATOM
      1 C         138.6063  139.1145  162.9620 C.ar    1  UNL1        0.0395
      2 C         138.9739  137.8592  163.6963 C.ar    1  UNL1        0.0063
      3 C         138.9232  137.8249  165.1950 C.ar    1  UNL1        0.0376
      4 C         138.5049  139.0458  165.9595 C.ar    1  UNL1        0.1453
      5 C         138.1373  140.3011  165.2252 C.ar    1  UNL1        0.0376
      6 C         138.1880  140.3354  163.7265 C.ar    1  UNL1        0.0063
      7 N         139.2981  138.7065  159.1646 N.ar    1  UNL1       -0.1509
      8 N         138.1716  139.6969  159.1492 N.ar    1  UNL1       -0.0451
      9 N         137.7754  139.9703  160.5698 N.ar    1  UNL1       -0.1077
     10 C         138.6569  139.1488  161.4632 C.ar    1  UNL1        0.2058
     11 N         139.5980  138.3678  160.5947 N.ar    1  UNL1       -0.1297
     12 C         140.0012  138.1522  157.9611 C.3     1  UNL1        0.1517
     13 C         140.1115  138.9750  156.7117 C.3     1  UNL1        0.0342
     14 C         138.9639  139.0318  155.7474 C.3     1  UNL1        0.0438
     15 O         137.0463  137.5972  154.7402 O.co2   1  UNL1       -0.5492
     16 C         138.5003  137.7825  155.0588 C.2     1  UNL1        0.0504
     17 O         139.4907  136.7186  154.6887 O.co2   1  UNL1       -0.5492
     18 O         138.4542  139.0115  167.4583 O.3     1  UNL1       -0.4535
     19 C         139.4156  139.8375  168.2603 C.ar    1  UNL1        0.1454
     20 C         140.7930  140.1091  167.7321 C.ar    1  UNL1        0.0384
     21 C         141.7545  140.9351  168.5343 C.ar    1  UNL1        0.0145
     22 C         141.3385  141.4895  169.8645 C.ar    1  UNL1        0.0579
     23 CL        142.3000  142.3154  170.6666 Cl      1  UNL1       -0.0822
     24 C         139.9612  141.2178  170.3927 C.ar    1  UNL1        0.0145
     25 C         138.9997  140.3918  169.5907 C.ar    1  UNL1        0.0384
@<TRIPOS>UNITY_ATOM_ATTR
15 1
charge -1
@<TRIPOS>BOND
     1    15    16   ar
     2    16    17   ar
     3    16    14    1
     4    14    13    1
     5    13    12    1
     6    12     7    1
     7     7     8   ar
     8     8     9   ar
     9     9    10   ar
    10    10     1    1
    11     1     2   ar
    12     2     3   ar
    13     3     4   ar
    14     4    18    1
    15    18    19    1
    16    19    20   ar
    17    20    21   ar
    18    21    22   ar
    19    22    23    1
    20    22    24   ar
    21    24    25   ar
    22     4     5   ar
    23     5     6   ar
    24    10    11   ar
    25    11     7   ar
    26     6     1   ar
    27    25    19   ar
@<TRIPOS>MOLECULE
*****
 25 27 0 0 0
SMALL
GASTEIGER

@<TRIPOS>ATOM
      1 C         140.2335  140.2435  167.3249 C.ar    1  UNL1        0.0395
      2 C         139.5890  140.9347  166.1601 C.ar    1  UNL1        0.0063
      3 C         140.4019  141.2748  164.9463 C.ar    1  UNL1        0.0376
      4 C         141.8594  140.9237  164.8972 C.ar    1  UNL1        0.1453
      5 C         142.5040  140.2325  166.0620 C.ar    1  UNL1        0.0376
      6 C         141.6910  139.8924  167.2758 C.ar    1  UNL1        0.0063
      7 N         137.6153  139.1329  169.9663 N.ar    1  UNL1       -0.1509
      8 N         138.7241  139.6273  170.8473 N.ar    1  UNL1       -0.0451
      9 N         139.8398  140.1035  169.9651 N.ar    1  UNL1       -0.1077
     10 C         139.4206  139.9034  168.5388 C.ar    1  UNL1        0.2058
     11 N         138.0458  139.3035  168.5396 N.ar    1  UNL1       -0.1297
     12 C         136.3059  138.5671  170.4305 C.3     1  UNL1        0.1517
     13 C         135.7899  138.8965  171.7999 C.3     1  UNL1        0.0342
     14 C         135.2449  137.8090  172.6776 C.3     1  UNL1        0.0438
     15 O         137.1867  136.1939  172.0689 O.co2   1  UNL1       -0.5492
     16 C         136.0901  136.6132  173.0025 C.2     1  UNL1        0.0504
     17 O         135.8388  135.8367  174.2610 O.co2   1  UNL1       -0.5492
     18 O         142.6723  141.2638  163.6833 O.3     1  UNL1       -0.4535
     19 C         142.7045  140.3239  162.5147 C.ar    1  UNL1        0.1454
     20 C         141.9778  139.0137  162.5859 C.ar    1  UNL1        0.0384
     21 C         142.0100  138.0738  161.4172 C.ar    1  UNL1        0.0145
     22 C         142.7689  138.4442  160.1775 C.ar    1  UNL1        0.0579
     23 CL        142.8011  137.5043  159.0090 Cl      1  UNL1       -0.0822
     24 C         143.4956  139.7545  160.1064 C.ar    1  UNL1        0.0145
     25 C         143.4634  140.6943  161.2750 C.ar    1  UNL1        0.0384
@<TRIPOS>UNITY_ATOM_ATTR
15 1
charge -1
@<TRIPOS>BOND
     1    15    16   ar
     2    16    17   ar
     3    16    14    1
     4    14    13    1
     5    13    12    1
     6    12     7    1
     7     7     8   ar
     8     8     9   ar
     9     9    10   ar
    10    10     1    1
    11     1     2   ar
    12     2     3   ar
    13     3     4   ar
    14     4    18    1
    15    18    19    1
    16    19    20   ar
    17    20    21   ar
    18    21    22   ar
    19    22    23    1
    20    22    24   ar
    21    24    25   ar
    22     4     5   ar
    23     5     6   ar
    24    10    11   ar
    25    11     7   ar
    26     6     1   ar
    27    25    19   ar
@<TRIPOS>MOLECULE
*****
 25 27 0 0 0
SMALL
GASTEIGER

@<TRIPOS>ATOM
      1 C         140.9667  138.7441  161.2071 C.ar    1  UNL1        0.0395
      2 C         142.2481  137.9805  161.3640 C.ar    1  UNL1        0.0063
      3 C         142.9764  137.4803  160.1519 C.ar    1  UNL1        0.0376
      4 C         142.4232  137.7438  158.7827 C.ar    1  UNL1        0.1453
      5 C         141.1417  138.5075  158.6258 C.ar    1  UNL1        0.0376
      6 C         140.4135  139.0076  159.8380 C.ar    1  UNL1        0.0063
      7 N         139.6239  140.5617  164.3629 N.ar    1  UNL1       -0.1509
      8 N         138.6113  139.4662  164.2066 N.ar    1  UNL1       -0.0451
      9 N         138.9911  138.6520  163.0054 N.ar    1  UNL1       -0.1077
     10 C         140.2384  139.2443  162.4194 C.ar    1  UNL1        0.2058
     11 N         140.6295  140.4246  163.2584 N.ar    1  UNL1       -0.1297
     12 C         139.6299  141.6103  165.4355 C.3     1  UNL1        0.1517
     13 C         139.1437  142.9965  165.1319 C.3     1  UNL1        0.0342
     14 C         137.8183  143.1957  164.4585 C.3     1  UNL1        0.0438
     15 O         137.9583  144.6397  162.3032 O.co2   1  UNL1       -0.5492
     16 C         137.7457  143.3103  162.9647 C.2     1  UNL1        0.0504
     17 O         137.4606  142.0956  162.1323 O.co2   1  UNL1       -0.5492
     18 O         143.1515  137.2437  157.5705 O.3     1  UNL1       -0.4535
     19 C         142.7411  135.9513  156.9291 C.ar    1  UNL1        0.1454
     20 C         143.3423  134.6586  157.3952 C.ar    1  UNL1        0.0384
     21 C         142.9319  133.3662  156.7537 C.ar    1  UNL1        0.0145
     22 C         141.9202  133.3667  155.6462 C.ar    1  UNL1        0.0579
     23 CL        141.5098  132.0743  155.0048 Cl      1  UNL1       -0.0822
     24 C         141.3190  134.6594  155.1801 C.ar    1  UNL1        0.0145
     25 C         141.7294  135.9518  155.8215 C.ar    1  UNL1        0.0384
@<TRIPOS>UNITY_ATOM_ATTR
15 1
charge -1
@<TRIPOS>BOND
     1    15    16   ar
     2    16    17   ar
     3    16    14    1
     4    14    13    1
     5    13    12    1
     6    12     7    1
     7     7     8   ar
     8     8     9   ar
     9     9    10   ar
    10    10     1    1
    11     1     2   ar
    12     2     3   ar
    13     3     4   ar
    14     4    18    1
    15    18    19    1
    16    19    20   ar
    17    20    21   ar
    18    21    22   ar
    19    22    23    1
    20    22    24   ar
    21    24    25   ar
    22     4     5   ar
    23     5     6   ar
    24    10    11   ar
    25    11     7   ar
    26     6     1   ar
    27    25    19   ar
@<TRIPOS>MOLECULE
*****
 25 27 0 0 0
SMALL
GASTEIGER

@<TRIPOS>ATOM
      1 C         142.9961  138.5430  162.8151 C.ar    1  UNL1        0.0395
      2 C         144.1893  139.2058  163.4372 C.ar    1  UNL1        0.0063
      3 C         144.3278  139.2526  164.9300 C.ar    1  UNL1        0.0376
      4 C         143.2731  138.6366  165.8008 C.ar    1  UNL1        0.1453
      5 C         142.0800  137.9738  165.1787 C.ar    1  UNL1        0.0376
      6 C         141.9415  137.9270  163.6859 C.ar    1  UNL1        0.0063
      7 N         141.9039  138.3292  159.0967 N.ar    1  UNL1       -0.1509
      8 N         143.3850  138.5192  158.9532 N.ar    1  UNL1       -0.0451
      9 N         143.9743  138.6225  160.3287 N.ar    1  UNL1       -0.1077
     10 C         142.8576  138.4962  161.3222 C.ar    1  UNL1        0.2058
     11 N         141.5780  138.3150  160.5607 N.ar    1  UNL1       -0.1297
     12 C         140.9214  138.1797  157.9732 C.3     1  UNL1        0.1517
     13 C         141.3380  137.5119  156.6963 C.3     1  UNL1        0.0342
     14 C         140.3122  136.8416  155.8311 C.3     1  UNL1        0.0438
     15 O         137.7966  137.2200  155.3038 O.co2   1  UNL1       -0.5492
     16 C         139.2278  137.6538  155.1874 C.2     1  UNL1        0.0504
     17 O         139.5744  138.8996  154.4275 O.co2   1  UNL1       -0.5492
     18 O         143.4117  138.6834  167.2937 O.3     1  UNL1       -0.4535
     19 C         142.5340  139.5939  168.1002 C.ar    1  UNL1        0.1454
     20 C         142.2422  139.2758  169.5367 C.ar    1  UNL1        0.0384
     21 C         141.3644  140.1864  170.3432 C.ar    1  UNL1        0.0145
     22 C         140.7785  141.4151  169.7132 C.ar    1  UNL1        0.0579
     23 CL        139.9008  142.3256  170.5197 Cl      1  UNL1       -0.0822
     24 C         141.0703  141.7332  168.2767 C.ar    1  UNL1        0.0145
     25 C         141.9480  140.8227  167.4702 C.ar    1  UNL1        0.0384
@<TRIPOS>UNITY_ATOM_ATTR
15 1
charge -1
@<TRIPOS>BOND
     1    15    16   ar
     2    16    17   ar
     3    16    14    1
     4    14    13    1
     5    13    12    1
     6    12     7    1
     7     7     8   ar
     8     8     9   ar
     9     9    10   ar
    10    10     1    1
    11     1     2   ar
    12     2     3   ar
    13     3     4   ar
    14     4    18    1
    15    18    19    1
    16    19    20   ar
    17    20    21   ar
    18    21    22   ar
    19    22    23    1
    20    22    24   ar
    21    24    25   ar
    22     4     5   ar
    23     5     6   ar
    24    10    11   ar
    25    11     7   ar
    26     6     1   ar
    27    25    19   ar
@<TRIPOS>MOLECULE
*****
 25 27 0 0 0
SMALL
GASTEIGER

@<TRIPOS>ATOM
      1 C         138.1670  140.5528  161.3111 C.ar    1  UNL1        0.0395
      2 C         137.8187  141.5618  162.3649 C.ar    1  UNL1        0.0063
      3 C         137.8067  141.1626  163.8107 C.ar    1  UNL1        0.0376
      4 C         138.1431  139.7544  164.2027 C.ar    1  UNL1        0.1453
      5 C         138.4915  138.7453  163.1490 C.ar    1  UNL1        0.0376
      6 C         138.5034  139.1446  161.7032 C.ar    1  UNL1        0.0063
      7 N         137.7639  140.9773  157.4741 N.ar    1  UNL1       -0.1509
      8 N         138.6309  142.1554  157.8065 N.ar    1  UNL1       -0.0451
      9 N         138.8874  142.1397  159.2843 N.ar    1  UNL1       -0.1077
     10 C         138.1790  140.9520  159.8652 C.ar    1  UNL1        0.2058
     11 N         137.4846  140.2336  158.7464 N.ar    1  UNL1       -0.1297
     12 C         137.2639  140.6078  156.1089 C.3     1  UNL1        0.1517
     13 C         135.9816  141.1931  155.5960 C.3     1  UNL1        0.0342
     14 C         134.7855  140.3123  155.3878 C.3     1  UNL1        0.0438
     15 O         132.3855  140.6077  156.3379 O.co2   1  UNL1       -0.5492
     16 C         133.7945  140.1186  156.4971 C.2     1  UNL1        0.0504
     17 O         134.2126  139.4359  157.7655 O.co2   1  UNL1       -0.5492
     18 O         138.1312  139.3552  165.6487 O.3     1  UNL1       -0.4535
     19 C         139.3276  139.6269  166.5116 C.ar    1  UNL1        0.1454
     20 C         140.6936  139.7048  165.8970 C.ar    1  UNL1        0.0384
     21 C         141.8900  139.9765  166.7600 C.ar    1  UNL1        0.0145
     22 C         141.7203  140.1704  168.2377 C.ar    1  UNL1        0.0579
     23 CL        142.9167  140.4421  169.1007 Cl      1  UNL1       -0.0822
     24 C         140.3543  140.0926  168.8524 C.ar    1  UNL1        0.0145
     25 C         139.1579  139.8208  167.9894 C.ar    1  UNL1        0.0384
@<TRIPOS>UNITY_ATOM_ATTR
15 1
charge -1
@<TRIPOS>BOND
     1    15    16   ar
     2    16    17   ar
     3    16    14    1
     4    14    13    1
     5    13    12    1
     6    12     7    1
     7     7     8   ar
     8     8     9   ar
     9     9    10   ar
    10    10     1    1
    11     1     2   ar
    12     2     3   ar
    13     3     4   ar
    14     4    18    1
    15    18    19    1
    16    19    20   ar
    17    20    21   ar
    18    21    22   ar
    19    22    23    1
    20    22    24   ar
    21    24    25   ar
    22     4     5   ar
    23     5     6   ar
    24    10    11   ar
    25    11     7   ar
    26     6     1   ar
    27    25    19   ar
