@<TRIPOS>MOLECULE
*****
 40 45 0 0 0
SMALL
GASTEIGER

@<TRIPOS>ATOM
      1 C         137.7531  142.8655  163.0894 C.3     1  UNL1        0.0932
      2 C         137.9226  142.5668  161.6293 C.3     1  UNL1        0.0286
      3 C         137.9910  141.1445  161.1578 C.3     1  UNL1        0.0193
      4 C         137.8899  140.0209  162.1464 C.3     1  UNL1        0.0700
      5 C         137.7203  140.3196  163.6065 C.3     1  UNL1        0.0193
      6 C         137.6520  141.7420  164.0780 C.3     1  UNL1        0.0286
      7 C         137.8471  140.7841  162.4523 C.3     1  UNL1        0.1562
      8 O         137.7853  142.0702  162.8787 O.3     1  UNL1       -0.3572
      9 N         137.9582  138.5986  161.6748 N.3     1  UNL1       -0.2926
     10 H         137.3580  138.5317  160.8529 H       1  UNL1        0.1236
     11 C         139.2790  137.9965  161.2967 C.3     1  UNL1        0.1152
     12 C         140.4782  138.2084  162.1725 C.ar    1  UNL1        0.0765
     13 C         140.6366  137.4110  163.4331 C.ar    1  UNL1        0.0193
     14 C         141.8357  137.6230  164.3090 C.ar    1  UNL1        0.0411
     15 C         142.8765  138.6323  163.9242 C.ar    1  UNL1        0.1708
     16 C         142.7181  139.4297  162.6637 C.ar    1  UNL1        0.1682
     17 N         141.5189  139.2178  161.7878 N.ar    1  UNL1       -0.2304
     18 N         143.7589  140.4391  162.2790 N.am    1  UNL1       -0.2639
     19 C         144.9580  140.6510  163.1548 C.2     1  UNL1        0.2718
     20 O         145.9988  141.6604  162.7701 O.2     1  UNL1       -0.2707
     21 C         145.1164  139.8536  164.4154 C.3     1  UNL1        0.2898
     22 O         144.0757  138.8442  164.8002 O.3     1  UNL1       -0.4628
     23 H         143.6549  140.9624  161.4516 H       1  UNL1        0.1565
     24 C         137.6847  144.2878  163.5610 C.3     1  UNL1        0.0319
     25 C         138.8393  144.8866  164.3082 C.3     1  UNL1        0.0302
     26 C         140.9136  142.3982  167.4316 C.ar    1  UNL1        0.2250
     27 C         142.3059  141.8965  167.1877 C.ar    1  UNL1        0.0593
     28 C         143.0069  142.2242  165.9027 C.ar    1  UNL1        0.0254
     29 C         142.3155  143.0537  164.8616 C.ar    1  UNL1        0.0988
     30 N         143.0165  143.3814  163.5766 N.ar    1  UNL1       -0.2425
     31 C         142.3251  144.2109  162.5355 C.ar    1  UNL1        0.0997
     32 C         140.9327  144.7126  162.7793 C.ar    1  UNL1        0.0602
     33 C         140.2317  144.3849  164.0643 C.ar    1  UNL1       -0.0001
     34 C         140.9232  143.5554  165.1055 C.ar    1  UNL1        0.0979
     35 N         140.2222  143.2276  166.3905 N.ar    1  UNL1       -0.2105
     36 C         140.2413  145.5421  161.7383 C.3     1  UNL1        0.3422
     37 F         139.8631  146.9619  162.0400 F       1  UNL1       -0.1932
     38 F         139.9280  144.9517  160.3953 F       1  UNL1       -0.1932
     39 C         140.4115  142.9401  169.9224 C.3     1  UNL1        0.2542
     40 O         140.2126  142.0704  168.7166 O.3     1  UNL1       -0.4561
@<TRIPOS>BOND
     1    39    40    1
     2    40    26    1
     3    26    27   ar
     4    27    28   ar
     5    28    29   ar
     6    29    30   ar
     7    30    31   ar
     8    31    32   ar
     9    32    36    1
    10    36    37    1
    11    36    38    1
    12    32    33   ar
    13    33    25    1
    14    25    24    1
    15    24     1    1
    16     1     2    1
    17     2     3    1
    18     3     4    1
    19     4     9    1
    20     9    11    1
    21    11    12    1
    22    12    13   ar
    23    13    14   ar
    24    14    15   ar
    25    15    16   ar
    26    16    17   ar
    27    16    18    1
    28    18    19   am
    29    19    20    2
    30    19    21    1
    31    21    22    1
    32     4     5    1
    33     5     6    1
    34     4     7    1
    35     7     8    1
    36    33    34   ar
    37    34    35   ar
    38    35    26   ar
    39    34    29   ar
    40     6     1    1
    41     8     1    1
    42    17    12   ar
    43    22    15    1
    44     9    10    1
    45    18    23    1
@<TRIPOS>MOLECULE
*****
 40 45 0 0 0
SMALL
GASTEIGER

@<TRIPOS>ATOM
      1 C         142.1384  137.9834  164.0774 C.3     1  UNL1        0.0932
      2 C         142.3895  138.3322  162.6403 C.3     1  UNL1        0.0286
      3 C         143.5480  139.2114  162.2733 C.3     1  UNL1        0.0193
      4 C         144.4554  139.7420  163.3435 C.3     1  UNL1        0.0700
      5 C         144.2042  139.3932  164.7806 C.3     1  UNL1        0.0193
      6 C         143.0457  138.5139  165.1475 C.3     1  UNL1        0.0286
      7 C         143.8334  139.2638  163.5932 C.3     1  UNL1        0.1562
      8 O         142.7859  138.4687  163.9251 O.3     1  UNL1       -0.3572
      9 N         145.6139  140.6213  162.9766 N.3     1  UNL1       -0.2926
     10 H         145.6719  140.6222  161.9582 H       1  UNL1        0.1236
     11 C         145.6340  142.0563  163.4127 C.3     1  UNL1        0.1152
     12 C         144.4104  142.9078  163.2468 C.ar    1  UNL1        0.0765
     13 C         143.7013  143.4455  164.4544 C.ar    1  UNL1        0.0193
     14 C         142.4777  144.2970  164.2884 C.ar    1  UNL1        0.0411
     15 C         141.9630  144.6109  162.9148 C.ar    1  UNL1        0.1708
     16 C         142.6720  144.0733  161.7073 C.ar    1  UNL1        0.1682
     17 N         143.8957  143.2218  161.8732 N.ar    1  UNL1       -0.2304
     18 N         142.1574  144.3872  160.3337 N.am    1  UNL1       -0.2639
     19 C         140.9338  145.2388  160.1677 C.2     1  UNL1        0.2718
     20 O         140.4192  145.5527  158.7942 O.2     1  UNL1       -0.2707
     21 C         140.2247  145.7764  161.3753 C.3     1  UNL1        0.2898
     22 O         140.7393  145.4625  162.7489 O.3     1  UNL1       -0.4628
     23 H         142.6228  144.0344  159.5412 H       1  UNL1        0.1565
     24 C         140.9799  137.1041  164.4443 C.3     1  UNL1        0.0319
     25 C         139.6305  137.7083  164.6979 C.3     1  UNL1        0.0302
     26 C         140.6088  140.9897  167.6177 C.ar    1  UNL1        0.2250
     27 C         140.3473  142.4209  167.2527 C.ar    1  UNL1        0.0593
     28 C         139.7597  142.7583  165.9145 C.ar    1  UNL1        0.0254
     29 C         139.4336  141.6645  164.9412 C.ar    1  UNL1        0.0988
     30 N         138.8460  142.0020  163.6030 N.ar    1  UNL1       -0.2425
     31 C         138.5199  140.9082  162.6297 C.ar    1  UNL1        0.0997
     32 C         138.7814  139.4769  162.9947 C.ar    1  UNL1        0.0602
     33 C         139.3690  139.1395  164.3329 C.ar    1  UNL1       -0.0001
     34 C         139.6951  140.2334  165.3062 C.ar    1  UNL1        0.0979
     35 N         140.2827  139.8959  166.6444 N.ar    1  UNL1       -0.2105
     36 C         138.4553  138.3832  162.0214 C.3     1  UNL1        0.3422
     37 F         137.0250  138.0753  161.6907 F       1  UNL1       -0.1932
     38 F         139.5596  137.5972  161.3787 F       1  UNL1       -0.1932
     39 C         142.5044  139.9227  169.0383 C.3     1  UNL1        0.2542
     40 O         141.1964  140.6522  168.9559 O.3     1  UNL1       -0.4561
@<TRIPOS>BOND
     1    39    40    1
     2    40    26    1
     3    26    27   ar
     4    27    28   ar
     5    28    29   ar
     6    29    30   ar
     7    30    31   ar
     8    31    32   ar
     9    32    36    1
    10    36    37    1
    11    36    38    1
    12    32    33   ar
    13    33    25    1
    14    25    24    1
    15    24     1    1
    16     1     2    1
    17     2     3    1
    18     3     4    1
    19     4     9    1
    20     9    11    1
    21    11    12    1
    22    12    13   ar
    23    13    14   ar
    24    14    15   ar
    25    15    16   ar
    26    16    17   ar
    27    16    18    1
    28    18    19   am
    29    19    20    2
    30    19    21    1
    31    21    22    1
    32     4     5    1
    33     5     6    1
    34     4     7    1
    35     7     8    1
    36    33    34   ar
    37    34    35   ar
    38    35    26   ar
    39    34    29   ar
    40     6     1    1
    41     8     1    1
    42    17    12   ar
    43    22    15    1
    44     9    10    1
    45    18    23    1
@<TRIPOS>MOLECULE
*****
 40 45 0 0 0
SMALL
GASTEIGER

@<TRIPOS>ATOM
      1 C         138.0630  139.8458  161.8282 C.3     1  UNL1        0.0932
      2 C         137.4198  140.4473  163.0425 C.3     1  UNL1        0.0286
      3 C         137.3262  141.9379  163.1811 C.3     1  UNL1        0.0193
      4 C         137.8758  142.8271  162.1053 C.3     1  UNL1        0.0700
      5 C         138.5190  142.2257  160.8910 C.3     1  UNL1        0.0193
      6 C         138.6126  140.7350  160.7525 C.3     1  UNL1        0.0286
      7 C         137.9503  142.0160  161.9850 C.3     1  UNL1        0.1562
      8 O         138.0349  140.6682  161.8596 O.3     1  UNL1       -0.3572
      9 N         137.7822  144.3178  162.2439 N.3     1  UNL1       -0.2926
     10 H         136.9208  144.5125  162.7544 H       1  UNL1        0.1236
     11 C         138.8760  145.0769  162.9348 C.3     1  UNL1        0.1152
     12 C         140.0048  144.3370  163.5891 C.ar    1  UNL1        0.0765
     13 C         139.8989  143.9277  165.0284 C.ar    1  UNL1        0.0193
     14 C         141.0277  143.1878  165.6827 C.ar    1  UNL1        0.0411
     15 C         142.2625  142.8571  164.8979 C.ar    1  UNL1        0.1708
     16 C         142.3684  143.2663  163.4587 C.ar    1  UNL1        0.1682
     17 N         141.2396  144.0063  162.8043 N.ar    1  UNL1       -0.2304
     18 N         143.6032  142.9356  162.6739 N.am    1  UNL1       -0.2639
     19 C         144.7320  142.1957  163.3282 C.2     1  UNL1        0.2718
     20 O         145.9668  141.8650  162.5434 O.2     1  UNL1       -0.2707
     21 C         144.6261  141.7864  164.7675 C.3     1  UNL1        0.2898
     22 O         143.3913  142.1171  165.5523 O.3     1  UNL1       -0.4628
     23 H         143.6727  143.2042  161.7293 H       1  UNL1        0.1565
     24 C         138.1566  138.3552  161.6896 C.3     1  UNL1        0.0319
     25 C         138.7478  137.5346  162.7974 C.3     1  UNL1        0.0302
     26 C         142.6586  137.8280  160.5909 C.ar    1  UNL1        0.2250
     27 C         143.8883  138.3062  161.3044 C.ar    1  UNL1        0.0593
     28 C         143.8144  138.6866  162.7535 C.ar    1  UNL1        0.0254
     29 C         142.5108  138.5888  163.4890 C.ar    1  UNL1        0.0988
     30 N         142.4369  138.9692  164.9381 N.ar    1  UNL1       -0.2425
     31 C         141.1333  138.8714  165.6736 C.ar    1  UNL1        0.0997
     32 C         139.9035  138.3932  164.9601 C.ar    1  UNL1        0.0602
     33 C         139.9775  138.0128  163.5110 C.ar    1  UNL1       -0.0001
     34 C         141.2811  138.1106  162.7755 C.ar    1  UNL1        0.0979
     35 N         141.3551  137.7302  161.3264 N.ar    1  UNL1       -0.2105
     36 C         138.5999  138.2953  165.6956 C.3     1  UNL1        0.3422
     37 F         137.8451  139.5413  166.0531 F       1  UNL1       -0.1932
     38 F         138.0511  136.9515  166.0737 F       1  UNL1       -0.1932
     39 C         142.6797  138.5098  158.0839 C.3     1  UNL1        0.2542
     40 O         142.7326  137.4477  159.1418 O.3     1  UNL1       -0.4561
@<TRIPOS>BOND
     1    39    40    1
     2    40    26    1
     3    26    27   ar
     4    27    28   ar
     5    28    29   ar
     6    29    30   ar
     7    30    31   ar
     8    31    32   ar
     9    32    36    1
    10    36    37    1
    11    36    38    1
    12    32    33   ar
    13    33    25    1
    14    25    24    1
    15    24     1    1
    16     1     2    1
    17     2     3    1
    18     3     4    1
    19     4     9    1
    20     9    11    1
    21    11    12    1
    22    12    13   ar
    23    13    14   ar
    24    14    15   ar
    25    15    16   ar
    26    16    17   ar
    27    16    18    1
    28    18    19   am
    29    19    20    2
    30    19    21    1
    31    21    22    1
    32     4     5    1
    33     5     6    1
    34     4     7    1
    35     7     8    1
    36    33    34   ar
    37    34    35   ar
    38    35    26   ar
    39    34    29   ar
    40     6     1    1
    41     8     1    1
    42    17    12   ar
    43    22    15    1
    44     9    10    1
    45    18    23    1
@<TRIPOS>MOLECULE
*****
 40 45 0 0 0
SMALL
GASTEIGER

@<TRIPOS>ATOM
      1 C         141.5824  138.5751  164.4530 C.3     1  UNL1        0.0932
      2 C         141.5989  139.0770  163.0395 C.3     1  UNL1        0.0286
      3 C         142.8422  139.7025  162.4802 C.3     1  UNL1        0.0193
      4 C         144.0691  139.8260  163.3344 C.3     1  UNL1        0.0700
      5 C         144.0526  139.3241  164.7478 C.3     1  UNL1        0.0193
      6 C         142.8092  138.6986  165.3071 C.3     1  UNL1        0.0286
      7 C         143.4114  139.4760  163.6848 C.3     1  UNL1        0.1562
      8 O         142.2872  138.9104  164.1906 O.3     1  UNL1       -0.3572
      9 N         145.3125  140.4515  162.7750 N.3     1  UNL1       -0.2926
     10 H         145.3024  140.2787  161.7698 H       1  UNL1        0.1236
     11 C         145.5622  141.9190  162.9597 C.3     1  UNL1        0.1152
     12 C         144.4114  142.8811  162.9621 C.ar    1  UNL1        0.0765
     13 C         143.9982  143.5531  164.2380 C.ar    1  UNL1        0.0193
     14 C         142.8475  144.5152  164.2403 C.ar    1  UNL1        0.0411
     15 C         142.1098  144.8054  162.9669 C.ar    1  UNL1        0.1708
     16 C         142.5229  144.1334  161.6910 C.ar    1  UNL1        0.1682
     17 N         143.6738  143.1712  161.6886 N.ar    1  UNL1       -0.2304
     18 N         141.7853  144.4236  160.4176 N.am    1  UNL1       -0.2639
     19 C         140.6345  145.3857  160.4199 C.2     1  UNL1        0.2718
     20 O         139.8969  145.6758  159.1465 O.2     1  UNL1       -0.2707
     21 C         140.2214  146.0577  161.6958 C.3     1  UNL1        0.2898
     22 O         140.9590  145.7676  162.9693 O.3     1  UNL1       -0.4628
     23 H         142.0565  143.9825  159.5802 H       1  UNL1        0.1565
     24 C         140.3391  137.9496  165.0123 C.3     1  UNL1        0.0319
     25 C         139.3774  138.7777  165.8121 C.3     1  UNL1        0.0302
     26 C         137.7545  141.2769  162.4402 C.ar    1  UNL1        0.2250
     27 C         137.8994  142.7695  162.4758 C.ar    1  UNL1        0.0593
     28 C         138.5853  143.4289  163.6354 C.ar    1  UNL1        0.0254
     29 C         139.1263  142.5959  164.7594 C.ar    1  UNL1        0.0988
     30 N         139.8123  143.2554  165.9189 N.ar    1  UNL1       -0.2425
     31 C         140.3533  142.4223  167.0429 C.ar    1  UNL1        0.0997
     32 C         140.2083  140.9297  167.0073 C.ar    1  UNL1        0.0602
     33 C         139.5224  140.2702  165.8477 C.ar    1  UNL1       -0.0001
     34 C         138.9814  141.1034  164.7238 C.ar    1  UNL1        0.0979
     35 N         138.2955  140.4439  163.5642 N.ar    1  UNL1       -0.2105
     36 C         140.7493  140.0967  168.1313 C.3     1  UNL1        0.3422
     37 F         142.1941  139.6936  168.1380 F       1  UNL1       -0.1932
     38 F         139.8455  139.6666  169.2485 F       1  UNL1       -0.1932
     39 C         137.8571  139.7726  160.3245 C.3     1  UNL1        0.2542
     40 O         137.0685  140.6175  161.2807 O.3     1  UNL1       -0.4561
@<TRIPOS>BOND
     1    39    40    1
     2    40    26    1
     3    26    27   ar
     4    27    28   ar
     5    28    29   ar
     6    29    30   ar
     7    30    31   ar
     8    31    32   ar
     9    32    36    1
    10    36    37    1
    11    36    38    1
    12    32    33   ar
    13    33    25    1
    14    25    24    1
    15    24     1    1
    16     1     2    1
    17     2     3    1
    18     3     4    1
    19     4     9    1
    20     9    11    1
    21    11    12    1
    22    12    13   ar
    23    13    14   ar
    24    14    15   ar
    25    15    16   ar
    26    16    17   ar
    27    16    18    1
    28    18    19   am
    29    19    20    2
    30    19    21    1
    31    21    22    1
    32     4     5    1
    33     5     6    1
    34     4     7    1
    35     7     8    1
    36    33    34   ar
    37    34    35   ar
    38    35    26   ar
    39    34    29   ar
    40     6     1    1
    41     8     1    1
    42    17    12   ar
    43    22    15    1
    44     9    10    1
    45    18    23    1
@<TRIPOS>MOLECULE
*****
 40 45 0 0 0
SMALL
GASTEIGER

@<TRIPOS>ATOM
      1 C         144.3361  139.7409  163.6819 C.3     1  UNL1        0.0932
      2 C         143.4166  139.3607  164.8044 C.3     1  UNL1        0.0286
      3 C         142.2202  138.4972  164.5341 C.3     1  UNL1        0.0193
      4 C         141.9433  138.0138  163.1414 C.3     1  UNL1        0.0700
      5 C         142.8628  138.3941  162.0189 C.3     1  UNL1        0.0193
      6 C         144.0592  139.2576  162.2892 C.3     1  UNL1        0.0286
      7 C         142.6113  138.4850  163.2406 C.3     1  UNL1        0.1562
      8 O         143.6931  139.2658  163.4849 O.3     1  UNL1       -0.3572
      9 N         140.7470  137.1503  162.8711 N.3     1  UNL1       -0.2926
     10 H         140.8884  136.2817  163.3867 H       1  UNL1        0.1236
     11 C         139.3732  137.6418  163.2192 C.3     1  UNL1        0.1152
     12 C         138.9793  139.0541  162.9025 C.ar    1  UNL1        0.0765
     13 C         138.4581  139.3995  161.5390 C.ar    1  UNL1        0.0193
     14 C         138.0642  140.8118  161.2223 C.ar    1  UNL1        0.0411
     15 C         138.1914  141.8786  162.2690 C.ar    1  UNL1        0.1708
     16 C         138.7126  141.5332  163.6324 C.ar    1  UNL1        0.1682
     17 N         139.1065  140.1209  163.9492 N.ar    1  UNL1       -0.2304
     18 N         138.8398  142.6001  164.6792 N.am    1  UNL1       -0.2639
     19 C         138.4459  144.0123  164.3624 C.2     1  UNL1        0.2718
     20 O         138.5731  145.0792  165.4091 O.2     1  UNL1       -0.2707
     21 C         137.9247  144.3578  162.9989 C.3     1  UNL1        0.2898
     22 O         137.7975  143.2909  161.9522 O.3     1  UNL1       -0.4628
     23 H         139.1819  142.3734  165.5741 H       1  UNL1        0.1565
     24 C         145.5324  140.6044  163.9521 C.3     1  UNL1        0.0319
     25 C         145.5824  142.0052  163.4179 C.3     1  UNL1        0.0302
     26 C         144.1168  142.5733  159.2014 C.ar    1  UNL1        0.2250
     27 C         142.8438  143.3239  158.9446 C.ar    1  UNL1        0.0593
     28 C         142.0593  143.8852  160.0933 C.ar    1  UNL1        0.0254
     29 C         142.5478  143.6958  161.4988 C.ar    1  UNL1        0.0988
     30 N         141.7633  144.2571  162.6475 N.ar    1  UNL1       -0.2425
     31 C         142.2518  144.0677  164.0530 C.ar    1  UNL1        0.0997
     32 C         143.5249  143.3171  164.3099 C.ar    1  UNL1        0.0602
     33 C         144.3094  142.7558  163.1612 C.ar    1  UNL1       -0.0001
     34 C         143.8208  142.9452  161.7556 C.ar    1  UNL1        0.0979
     35 N         144.6053  142.3840  160.6069 N.ar    1  UNL1       -0.2105
     36 C         144.0134  143.1278  165.7154 C.3     1  UNL1        0.3422
     37 F         143.3524  142.1214  166.6100 F       1  UNL1       -0.1932
     38 F         145.1629  143.9448  166.2263 F       1  UNL1       -0.1932
     39 C         144.4940  140.7087  157.4320 C.3     1  UNL1        0.2542
     40 O         144.9013  142.0120  158.0527 O.3     1  UNL1       -0.4561
@<TRIPOS>BOND
     1    39    40    1
     2    40    26    1
     3    26    27   ar
     4    27    28   ar
     5    28    29   ar
     6    29    30   ar
     7    30    31   ar
     8    31    32   ar
     9    32    36    1
    10    36    37    1
    11    36    38    1
    12    32    33   ar
    13    33    25    1
    14    25    24    1
    15    24     1    1
    16     1     2    1
    17     2     3    1
    18     3     4    1
    19     4     9    1
    20     9    11    1
    21    11    12    1
    22    12    13   ar
    23    13    14   ar
    24    14    15   ar
    25    15    16   ar
    26    16    17   ar
    27    16    18    1
    28    18    19   am
    29    19    20    2
    30    19    21    1
    31    21    22    1
    32     4     5    1
    33     5     6    1
    34     4     7    1
    35     7     8    1
    36    33    34   ar
    37    34    35   ar
    38    35    26   ar
    39    34    29   ar
    40     6     1    1
    41     8     1    1
    42    17    12   ar
    43    22    15    1
    44     9    10    1
    45    18    23    1
@<TRIPOS>MOLECULE
*****
 40 45 0 0 0
SMALL
GASTEIGER

@<TRIPOS>ATOM
      1 C         138.1399  139.9657  161.9061 C.3     1  UNL1        0.0932
      2 C         137.3958  140.6182  163.0333 C.3     1  UNL1        0.0286
      3 C         137.4314  142.1093  163.1917 C.3     1  UNL1        0.0193
      4 C         138.2112  142.9481  162.2229 C.3     1  UNL1        0.0700
      5 C         138.9553  142.2956  161.0957 C.3     1  UNL1        0.0193
      6 C         138.9196  140.8043  160.9373 C.3     1  UNL1        0.0286
      7 C         138.2212  142.1347  162.0954 C.3     1  UNL1        0.1562
      8 O         138.1890  140.7863  161.9521 O.3     1  UNL1       -0.3572
      9 N         138.2468  144.4392  162.3813 N.3     1  UNL1       -0.2926
     10 H         137.4353  144.6950  162.9438 H       1  UNL1        0.1236
     11 C         139.4369  145.0981  163.0133 C.3     1  UNL1        0.1152
     12 C         140.3628  144.2995  163.8822 C.ar    1  UNL1        0.0765
     13 C         141.7377  143.9525  163.3930 C.ar    1  UNL1        0.0193
     14 C         142.6636  143.1540  164.2618 C.ar    1  UNL1        0.0411
     15 C         142.2147  142.7024  165.6200 C.ar    1  UNL1        0.1708
     16 C         140.8399  143.0494  166.1092 C.ar    1  UNL1        0.1682
     17 N         139.9139  143.8480  165.2404 N.ar    1  UNL1       -0.2304
     18 N         140.3910  142.5978  167.4674 N.am    1  UNL1       -0.2639
     19 C         141.3169  141.7992  168.3363 C.2     1  UNL1        0.2718
     20 O         140.8680  141.3477  169.6944 O.2     1  UNL1       -0.2707
     21 C         142.6918  141.4522  167.8470 C.3     1  UNL1        0.2898
     22 O         143.1407  141.9038  166.4889 O.3     1  UNL1       -0.4628
     23 H         139.4886  142.8255  167.7885 H       1  UNL1        0.1565
     24 C         138.1042  138.4745  161.7477 C.3     1  UNL1        0.0319
     25 C         138.7488  137.5952  162.7779 C.3     1  UNL1        0.0302
     26 C         142.6815  137.8736  160.6086 C.ar    1  UNL1        0.2250
     27 C         143.9070  138.3434  161.3348 C.ar    1  UNL1        0.0593
     28 C         143.8216  138.7204  162.7841 C.ar    1  UNL1        0.0254
     29 C         142.5107  138.6276  163.5073 C.ar    1  UNL1        0.0988
     30 N         142.4253  139.0046  164.9566 N.ar    1  UNL1       -0.2425
     31 C         141.1145  138.9118  165.6797 C.ar    1  UNL1        0.0997
     32 C         139.8889  138.4420  164.9535 C.ar    1  UNL1        0.0602
     33 C         139.9743  138.0650  163.5042 C.ar    1  UNL1       -0.0001
     34 C         141.2853  138.1578  162.7810 C.ar    1  UNL1        0.0979
     35 N         141.3707  137.7808  161.3317 N.ar    1  UNL1       -0.2105
     36 C         138.5780  138.3492  165.6766 C.3     1  UNL1        0.3422
     37 F         137.8000  139.5948  165.9819 F       1  UNL1       -0.1932
     38 F         138.0451  137.0107  166.0945 F       1  UNL1       -0.1932
     39 C         142.3769  138.4871  158.1024 C.3     1  UNL1        0.2542
     40 O         142.7669  137.4967  159.1592 O.3     1  UNL1       -0.4561
@<TRIPOS>BOND
     1    39    40    1
     2    40    26    1
     3    26    27   ar
     4    27    28   ar
     5    28    29   ar
     6    29    30   ar
     7    30    31   ar
     8    31    32   ar
     9    32    36    1
    10    36    37    1
    11    36    38    1
    12    32    33   ar
    13    33    25    1
    14    25    24    1
    15    24     1    1
    16     1     2    1
    17     2     3    1
    18     3     4    1
    19     4     9    1
    20     9    11    1
    21    11    12    1
    22    12    13   ar
    23    13    14   ar
    24    14    15   ar
    25    15    16   ar
    26    16    17   ar
    27    16    18    1
    28    18    19   am
    29    19    20    2
    30    19    21    1
    31    21    22    1
    32     4     5    1
    33     5     6    1
    34     4     7    1
    35     7     8    1
    36    33    34   ar
    37    34    35   ar
    38    35    26   ar
    39    34    29   ar
    40     6     1    1
    41     8     1    1
    42    17    12   ar
    43    22    15    1
    44     9    10    1
    45    18    23    1
@<TRIPOS>MOLECULE
*****
 40 45 0 0 0
SMALL
GASTEIGER

@<TRIPOS>ATOM
      1 C         139.8861  137.9039  164.6602 C.3     1  UNL1        0.0932
      2 C         139.6411  137.6472  163.2028 C.3     1  UNL1        0.0286
      3 C         140.7952  137.5942  162.2462 C.3     1  UNL1        0.0193
      4 C         142.1944  137.7979  162.7470 C.3     1  UNL1        0.0700
      5 C         142.4395  138.0547  164.2044 C.3     1  UNL1        0.0193
      6 C         141.2853  138.1076  165.1610 C.3     1  UNL1        0.0286
      7 C         141.5940  137.8359  163.3091 C.3     1  UNL1        0.1562
      8 O         140.5504  137.8838  164.1741 O.3     1  UNL1       -0.3572
      9 N         143.3486  137.7450  161.7903 N.3     1  UNL1       -0.2926
     10 H         143.2147  136.9147  161.2132 H       1  UNL1        0.1236
     11 C         143.5984  138.8886  160.8524 C.3     1  UNL1        0.1152
     12 C         143.4953  140.3008  161.3474 C.ar    1  UNL1        0.0765
     13 C         142.7382  141.3215  160.5505 C.ar    1  UNL1        0.0193
     14 C         142.6351  142.7337  161.0455 C.ar    1  UNL1        0.0411
     15 C         143.2892  143.1252  162.3374 C.ar    1  UNL1        0.1708
     16 C         144.0463  142.1046  163.1343 C.ar    1  UNL1        0.1682
     17 N         144.1494  140.6923  162.6393 N.ar    1  UNL1       -0.2304
     18 N         144.7003  142.4962  164.4261 N.am    1  UNL1       -0.2639
     19 C         144.5972  143.9084  164.9211 C.2     1  UNL1        0.2718
     20 O         145.2513  144.2999  166.2130 O.2     1  UNL1       -0.2707
     21 C         143.8401  144.9291  164.1242 C.3     1  UNL1        0.2898
     22 O         143.1860  144.5375  162.8324 O.3     1  UNL1       -0.4628
     23 H         145.1973  141.8263  164.9491 H       1  UNL1        0.1565
     24 C         138.7320  137.9569  165.6168 C.3     1  UNL1        0.0319
     25 C         138.1684  139.2812  166.0395 C.3     1  UNL1        0.0302
     26 C         138.1687  141.6570  162.2178 C.ar    1  UNL1        0.2250
     27 C         139.0042  142.8977  162.1061 C.ar    1  UNL1        0.0593
     28 C         139.8395  143.3465  163.2683 C.ar    1  UNL1        0.0254
     29 C         139.8394  142.5547  164.5422 C.ar    1  UNL1        0.0988
     30 N         140.6748  143.0035  165.7044 N.ar    1  UNL1       -0.2425
     31 C         140.6747  142.2116  166.9783 C.ar    1  UNL1        0.0997
     32 C         139.8392  140.9708  167.0900 C.ar    1  UNL1        0.0602
     33 C         139.0038  140.5219  165.9278 C.ar    1  UNL1       -0.0001
     34 C         139.0040  141.3139  164.6539 C.ar    1  UNL1        0.0979
     35 N         138.1686  140.8651  163.4917 N.ar    1  UNL1       -0.2105
     36 C         139.8391  140.1789  168.3639 C.3     1  UNL1        0.3422
     37 F         141.0796  139.4555  168.7975 F       1  UNL1       -0.1932
     38 F         138.5985  140.1104  169.2044 F       1  UNL1       -0.1932
     39 C         137.6797  139.9435  160.3270 C.3     1  UNL1        0.2542
     40 O         137.3334  141.2081  161.0556 O.3     1  UNL1       -0.4561
@<TRIPOS>BOND
     1    39    40    1
     2    40    26    1
     3    26    27   ar
     4    27    28   ar
     5    28    29   ar
     6    29    30   ar
     7    30    31   ar
     8    31    32   ar
     9    32    36    1
    10    36    37    1
    11    36    38    1
    12    32    33   ar
    13    33    25    1
    14    25    24    1
    15    24     1    1
    16     1     2    1
    17     2     3    1
    18     3     4    1
    19     4     9    1
    20     9    11    1
    21    11    12    1
    22    12    13   ar
    23    13    14   ar
    24    14    15   ar
    25    15    16   ar
    26    16    17   ar
    27    16    18    1
    28    18    19   am
    29    19    20    2
    30    19    21    1
    31    21    22    1
    32     4     5    1
    33     5     6    1
    34     4     7    1
    35     7     8    1
    36    33    34   ar
    37    34    35   ar
    38    35    26   ar
    39    34    29   ar
    40     6     1    1
    41     8     1    1
    42    17    12   ar
    43    22    15    1
    44     9    10    1
    45    18    23    1
@<TRIPOS>MOLECULE
*****
 40 45 0 0 0
SMALL
GASTEIGER

@<TRIPOS>ATOM
      1 C         141.5111  137.9951  163.8644 C.3     1  UNL1        0.0932
      2 C         142.0519  138.3072  162.5005 C.3     1  UNL1        0.0286
      3 C         143.3268  139.0847  162.3591 C.3     1  UNL1        0.0193
      4 C         144.0610  139.5502  163.5816 C.3     1  UNL1        0.0700
      5 C         143.5201  139.2382  164.9455 C.3     1  UNL1        0.0193
      6 C         142.2451  138.4606  165.0868 C.3     1  UNL1        0.0286
      7 C         143.3662  139.1272  163.7093 C.3     1  UNL1        0.1562
      8 O         142.2134  138.4241  163.8372 O.3     1  UNL1       -0.3572
      9 N         145.3359  140.3277  163.4402 N.3     1  UNL1       -0.2926
     10 H         145.6328  140.2322  162.4690 H       1  UNL1        0.1236
     11 C         145.3597  141.7934  163.7581 C.3     1  UNL1        0.1152
     12 C         144.1583  142.6434  163.4681 C.ar    1  UNL1        0.0765
     13 C         143.2528  143.0685  164.5859 C.ar    1  UNL1        0.0193
     14 C         142.0514  143.9185  164.2958 C.ar    1  UNL1        0.0411
     15 C         141.7555  144.3434  162.8880 C.ar    1  UNL1        0.1708
     16 C         142.6610  143.9184  161.7703 C.ar    1  UNL1        0.1682
     17 N         143.8624  143.0683  162.0603 N.ar    1  UNL1       -0.2304
     18 N         142.3651  144.3433  160.3625 N.am    1  UNL1       -0.2639
     19 C         141.1637  145.1933  160.0724 C.2     1  UNL1        0.2718
     20 O         140.8678  145.6182  158.6646 O.2     1  UNL1       -0.2707
     21 C         140.2581  145.6184  161.1902 C.3     1  UNL1        0.2898
     22 O         140.5540  145.1934  162.5980 O.3     1  UNL1       -0.4628
     23 H         142.9594  144.0643  159.6289 H       1  UNL1        0.1565
     24 C         140.2362  137.2176  164.0058 C.3     1  UNL1        0.0319
     25 C         138.9165  137.9304  163.9825 C.3     1  UNL1        0.0302
     26 C         138.7712  140.0191  159.9993 C.ar    1  UNL1        0.2250
     27 C         138.7289  141.5173  159.9391 C.ar    1  UNL1        0.0593
     28 C         138.7350  142.3192  161.2067 C.ar    1  UNL1        0.0254
     29 C         138.7834  141.6230  162.5345 C.ar    1  UNL1        0.0988
     30 N         138.7896  142.4250  163.8021 N.ar    1  UNL1       -0.2425
     31 C         138.8380  141.7288  165.1298 C.ar    1  UNL1        0.0997
     32 C         138.8803  140.2305  165.1900 C.ar    1  UNL1        0.0602
     33 C         138.8742  139.4286  163.9224 C.ar    1  UNL1       -0.0001
     34 C         138.8257  140.1248  162.5946 C.ar    1  UNL1        0.0979
     35 N         138.8196  139.3229  161.3270 N.ar    1  UNL1       -0.2105
     36 C         138.9287  139.5343  166.5177 C.3     1  UNL1        0.3422
     37 F         137.7374  138.7636  167.0043 F       1  UNL1       -0.1932
     38 F         140.1685  139.6088  167.3589 F       1  UNL1       -0.1932
     39 C         139.9823  138.4373  158.3316 C.3     1  UNL1        0.2542
     40 O         138.7650  139.2171  158.7317 O.3     1  UNL1       -0.4561
@<TRIPOS>BOND
     1    39    40    1
     2    40    26    1
     3    26    27   ar
     4    27    28   ar
     5    28    29   ar
     6    29    30   ar
     7    30    31   ar
     8    31    32   ar
     9    32    36    1
    10    36    37    1
    11    36    38    1
    12    32    33   ar
    13    33    25    1
    14    25    24    1
    15    24     1    1
    16     1     2    1
    17     2     3    1
    18     3     4    1
    19     4     9    1
    20     9    11    1
    21    11    12    1
    22    12    13   ar
    23    13    14   ar
    24    14    15   ar
    25    15    16   ar
    26    16    17   ar
    27    16    18    1
    28    18    19   am
    29    19    20    2
    30    19    21    1
    31    21    22    1
    32     4     5    1
    33     5     6    1
    34     4     7    1
    35     7     8    1
    36    33    34   ar
    37    34    35   ar
    38    35    26   ar
    39    34    29   ar
    40     6     1    1
    41     8     1    1
    42    17    12   ar
    43    22    15    1
    44     9    10    1
    45    18    23    1
@<TRIPOS>MOLECULE
*****
 40 45 0 0 0
SMALL
GASTEIGER

@<TRIPOS>ATOM
      1 C         142.5069  138.3276  164.0328 C.3     1  UNL1        0.0932
      2 C         141.2263  138.0135  164.7480 C.3     1  UNL1        0.0286
      3 C         139.9822  137.7186  163.9638 C.3     1  UNL1        0.0193
      4 C         140.0186  137.7377  162.4643 C.3     1  UNL1        0.0700
      5 C         141.2991  138.0517  161.7491 C.3     1  UNL1        0.0193
      6 C         142.5433  138.3467  162.5334 C.3     1  UNL1        0.0286
      7 C         140.7258  137.9057  162.8510 C.3     1  UNL1        0.1562
      8 O         141.8508  138.1725  163.5601 O.3     1  UNL1       -0.3572
      9 N         138.7744  137.4427  161.6801 N.3     1  UNL1       -0.2926
     10 H         138.4164  136.5504  162.0206 H       1  UNL1        0.1236
     11 C         137.6262  138.4076  161.7043 C.3     1  UNL1        0.1152
     12 C         137.8877  139.8846  161.7119 C.ar    1  UNL1        0.0765
     13 C         138.1920  140.5990  160.4285 C.ar    1  UNL1        0.0193
     14 C         138.4536  142.0760  160.4360 C.ar    1  UNL1        0.0411
     15 C         138.4108  142.8386  161.7270 C.ar    1  UNL1        0.1708
     16 C         138.1065  142.1243  163.0104 C.ar    1  UNL1        0.1682
     17 N         137.8450  140.6472  163.0028 N.ar    1  UNL1       -0.2304
     18 N         138.0637  142.8869  164.3013 N.am    1  UNL1       -0.2639
     19 C         138.3253  144.3639  164.3089 C.2     1  UNL1        0.2718
     20 O         138.2825  145.1265  165.5998 O.2     1  UNL1       -0.2707
     21 C         138.6296  145.0783  163.0255 C.3     1  UNL1        0.2898
     22 O         138.6723  144.3157  161.7345 O.3     1  UNL1       -0.4628
     23 H         137.8640  142.4180  165.1436 H       1  UNL1        0.1565
     24 C         143.7511  138.6226  164.8171 C.3     1  UNL1        0.0319
     25 C         144.2437  140.0341  164.9391 C.3     1  UNL1        0.0302
     26 C         141.4947  140.8331  168.4110 C.ar    1  UNL1        0.2250
     27 C         140.5232  141.9744  168.3512 C.ar    1  UNL1        0.0593
     28 C         140.4680  142.8493  167.1341 C.ar    1  UNL1        0.0254
     29 C         141.3843  142.5830  165.9768 C.ar    1  UNL1        0.0988
     30 N         141.3291  143.4580  164.7596 N.ar    1  UNL1       -0.2425
     31 C         142.2455  143.1917  163.6024 C.ar    1  UNL1        0.0997
     32 C         143.2170  142.0503  163.6621 C.ar    1  UNL1        0.0602
     33 C         143.2722  141.1754  164.8793 C.ar    1  UNL1       -0.0001
     34 C         142.3558  141.4418  166.0366 C.ar    1  UNL1        0.0979
     35 N         142.4110  140.5668  167.2537 N.ar    1  UNL1       -0.2105
     36 C         144.1334  141.7840  162.5049 C.3     1  UNL1        0.3422
     37 F         145.5978  142.0869  162.6226 F       1  UNL1       -0.1932
     38 F         143.5853  141.2149  161.2298 F       1  UNL1       -0.1932
     39 C         142.3552  140.3819  170.8206 C.3     1  UNL1        0.2542
     40 O         141.5499  139.9581  169.6282 O.3     1  UNL1       -0.4561
@<TRIPOS>BOND
     1    39    40    1
     2    40    26    1
     3    26    27   ar
     4    27    28   ar
     5    28    29   ar
     6    29    30   ar
     7    30    31   ar
     8    31    32   ar
     9    32    36    1
    10    36    37    1
    11    36    38    1
    12    32    33   ar
    13    33    25    1
    14    25    24    1
    15    24     1    1
    16     1     2    1
    17     2     3    1
    18     3     4    1
    19     4     9    1
    20     9    11    1
    21    11    12    1
    22    12    13   ar
    23    13    14   ar
    24    14    15   ar
    25    15    16   ar
    26    16    17   ar
    27    16    18    1
    28    18    19   am
    29    19    20    2
    30    19    21    1
    31    21    22    1
    32     4     5    1
    33     5     6    1
    34     4     7    1
    35     7     8    1
    36    33    34   ar
    37    34    35   ar
    38    35    26   ar
    39    34    29   ar
    40     6     1    1
    41     8     1    1
    42    17    12   ar
    43    22    15    1
    44     9    10    1
    45    18    23    1
