@<TRIPOS>MOLECULE
*****
 29 31 0 0 0
SMALL
GASTEIGER

@<TRIPOS>ATOM
      1 C         139.4133  139.1831  164.4302 C.ar    1  UNL1        0.0873
      2 S         138.4152  139.8579  163.5366 S.2     1  UNL1       -0.0433
      3 C         138.2603  139.0222  162.3005 C.ar    1  UNL1        0.1669
      4 N         139.1627  137.8310  162.4303 N.ar    1  UNL1       -0.2276
      5 C         139.8753  137.9305  163.7465 C.ar    1  UNL1        0.0750
      6 C         140.8744  136.9496  164.2845 C.3     1  UNL1        0.0534
      7 N         137.3610  139.3247  161.1387 N.am    1  UNL1       -0.2484
      8 C         137.9319  139.9087  159.8805 C.2     1  UNL1        0.3060
      9 O         139.4021  140.1903  159.7842 O.2     1  UNL1       -0.2524
     10 N         137.0325  140.2112  158.7188 N.am    1  UNL1       -0.2862
     11 H         136.3961  139.1399  161.2020 H       1  UNL1        0.1583
     12 H         136.0676  140.0264  158.7820 H       1  UNL1        0.1511
     13 C         137.6034  140.7952  157.4606 C.3     1  UNL1        0.1203
     14 C         136.7473  140.9177  156.2350 C.3     1  UNL1        0.1348
     15 C         136.4022  142.2735  155.6937 C.3     1  UNL1        0.0339
     16 O         136.2364  139.6847  155.5506 O.3     1  UNL1       -0.3545
     17 C         134.8188  139.6300  155.0636 C.3     1  UNL1        0.1420
     18 C         133.6932  139.4920  156.0455 C.3     1  UNL1        0.0297
     19 C         132.9525  138.6808  157.0669 C.3     1  UNL1        0.0026
     20 C         132.4843  140.0640  156.7246 C.3     1  UNL1        0.0026
     21 C         140.3253  140.1663  167.1138 C.1     1  UNL1       -0.0577
     22 C         139.8693  139.6747  165.7720 C.1     1  UNL1       -0.0519
     23 C         143.9318  142.4364  170.0870 C.3     1  UNL1        0.0327
     24 C         142.5846  141.7930  169.9422 C.ar    1  UNL1       -0.0021
     25 C         141.6934  141.6411  171.1391 C.ar    1  UNL1        0.0946
     26 N         140.3462  140.9976  170.9943 N.ar    1  UNL1       -0.2420
     27 C         139.8901  140.5060  169.6525 C.ar    1  UNL1        0.1070
     28 C         140.7813  140.6579  168.4556 C.ar    1  UNL1        0.0608
     29 C         142.1285  141.3014  168.6004 C.ar    1  UNL1        0.0071
@<TRIPOS>BOND
     1    23    24    1
     2    24    25   ar
     3    25    26   ar
     4    26    27   ar
     5    27    28   ar
     6    28    21    1
     7    21    22    3
     8    22     1    1
     9     1     2   ar
    10     2     3   ar
    11     3     7    1
    12     7     8   am
    13     8     9    2
    14     8    10   am
    15    10    13    1
    16    13    14    1
    17    14    15    1
    18    14    16    1
    19    16    17    1
    20    17    18    1
    21    18    19    1
    22    19    20    1
    23     3     4   ar
    24     4     5   ar
    25     5     6    1
    26    28    29   ar
    27    29    24   ar
    28     5     1   ar
    29    20    18    1
    30     7    11    1
    31    10    12    1
@<TRIPOS>MOLECULE
*****
 29 31 0 0 0
SMALL
GASTEIGER

@<TRIPOS>ATOM
      1 C         140.0865  143.9773  164.3090 C.ar    1  UNL1        0.0873
      2 S         141.1161  144.6625  163.4601 S.2     1  UNL1       -0.0433
      3 C         140.4617  145.0636  162.1713 C.ar    1  UNL1        0.1669
      4 N         139.0278  144.6264  162.2237 N.ar    1  UNL1       -0.2276
      5 C         138.7959  143.9550  163.5449 C.ar    1  UNL1        0.0750
      6 C         137.5009  143.3650  164.0188 C.3     1  UNL1        0.0534
      7 N         141.1249  145.7768  161.0304 N.am    1  UNL1       -0.2484
      8 C         141.1597  145.1457  159.6701 C.2     1  UNL1        0.3060
      9 O         140.5313  143.8014  159.4507 O.2     1  UNL1       -0.2524
     10 N         141.8228  145.8588  158.5292 N.am    1  UNL1       -0.2862
     11 H         141.5373  146.6591  161.1744 H       1  UNL1        0.1583
     12 H         142.2352  146.7411  158.6732 H       1  UNL1        0.1511
     13 C         141.8577  145.2278  157.1689 C.3     1  UNL1        0.1203
     14 C         140.9012  145.6823  156.1066 C.3     1  UNL1        0.1348
     15 C         141.0844  145.2286  154.6886 C.3     1  UNL1        0.0339
     16 O         139.7616  146.5904  156.4621 O.3     1  UNL1       -0.3545
     17 C         138.9224  147.2003  155.3787 C.3     1  UNL1        0.1420
     18 C         139.3511  148.4833  154.7304 C.3     1  UNL1        0.0297
     19 C         140.1288  149.2072  153.6716 C.3     1  UNL1        0.0026
     20 C         139.3159  149.9814  154.6664 C.3     1  UNL1        0.0026
     21 C         140.5308  142.8496  167.0532 C.1     1  UNL1       -0.0577
     22 C         140.3086  143.4134  165.6812 C.1     1  UNL1       -0.0519
     23 C         142.2709  139.0359  170.1237 C.3     1  UNL1        0.0327
     24 C         141.6230  140.3789  169.9606 C.ar    1  UNL1       -0.0021
     25 C         141.1972  141.1580  171.1696 C.ar    1  UNL1        0.0946
     26 N         140.5493  142.5009  171.0065 N.ar    1  UNL1       -0.2420
     27 C         140.3272  143.0648  169.6344 C.ar    1  UNL1        0.1070
     28 C         140.7529  142.2857  168.4254 C.ar    1  UNL1        0.0608
     29 C         141.4009  140.9427  168.5885 C.ar    1  UNL1        0.0071
@<TRIPOS>BOND
     1    23    24    1
     2    24    25   ar
     3    25    26   ar
     4    26    27   ar
     5    27    28   ar
     6    28    21    1
     7    21    22    3
     8    22     1    1
     9     1     2   ar
    10     2     3   ar
    11     3     7    1
    12     7     8   am
    13     8     9    2
    14     8    10   am
    15    10    13    1
    16    13    14    1
    17    14    15    1
    18    14    16    1
    19    16    17    1
    20    17    18    1
    21    18    19    1
    22    19    20    1
    23     3     4   ar
    24     4     5   ar
    25     5     6    1
    26    28    29   ar
    27    29    24   ar
    28     5     1   ar
    29    20    18    1
    30     7    11    1
    31    10    12    1
@<TRIPOS>MOLECULE
*****
 29 31 0 0 0
SMALL
GASTEIGER

@<TRIPOS>ATOM
      1 C         141.2284  138.6033  164.4689 C.ar    1  UNL1        0.0873
      2 S         142.3533  138.6671  163.4786 S.2     1  UNL1       -0.0433
      3 C         141.9732  137.8332  162.2911 C.ar    1  UNL1        0.1669
      4 N         140.6134  137.2540  162.5475 N.ar    1  UNL1       -0.2276
      5 C         140.1531  137.7300  163.8935 C.ar    1  UNL1        0.0750
      6 C         138.8470  137.3921  164.5489 C.3     1  UNL1        0.0534
      7 N         142.8065  137.6164  161.0628 N.am    1  UNL1       -0.2484
      8 C         142.2929  138.0502  159.7219 C.2     1  UNL1        0.3060
      9 O         140.9460  138.7008  159.6093 O.2     1  UNL1       -0.2524
     10 N         143.1262  137.8335  158.4937 N.am    1  UNL1       -0.2862
     11 H         143.6905  137.1894  161.1368 H       1  UNL1        0.1583
     12 H         144.0102  137.4065  158.5676 H       1  UNL1        0.1511
     13 C         142.6128  138.2673  157.1528 C.3     1  UNL1        0.1203
     14 C         143.5057  138.1984  155.9496 C.3     1  UNL1        0.1348
     15 C         143.4238  139.2600  154.8930 C.3     1  UNL1        0.0339
     16 O         144.4807  137.0680  155.8029 O.3     1  UNL1       -0.3545
     17 C         143.9814  135.6707  155.5831 C.3     1  UNL1        0.1420
     18 C         142.7658  135.4329  154.7369 C.3     1  UNL1        0.0297
     19 C         141.3491  134.9590  154.6025 C.3     1  UNL1        0.0026
     20 C         142.0773  135.4951  153.4058 C.3     1  UNL1        0.0026
     21 C         141.1441  139.9807  167.1327 C.1     1  UNL1       -0.0577
     22 C         141.1863  139.2921  165.8008 C.1     1  UNL1       -0.0519
     23 C         140.3362  144.2650  169.9598 C.3     1  UNL1        0.0327
     24 C         140.6980  142.8115  169.8781 C.ar    1  UNL1       -0.0021
     25 C         141.0177  142.0469  171.1283 C.ar    1  UNL1        0.0946
     26 N         141.3796  140.5934  171.0466 N.ar    1  UNL1       -0.2420
     27 C         141.4217  139.9047  169.7148 C.ar    1  UNL1        0.1070
     28 C         141.1020  140.6694  168.4646 C.ar    1  UNL1        0.0608
     29 C         140.7402  142.1228  168.5463 C.ar    1  UNL1        0.0071
@<TRIPOS>BOND
     1    23    24    1
     2    24    25   ar
     3    25    26   ar
     4    26    27   ar
     5    27    28   ar
     6    28    21    1
     7    21    22    3
     8    22     1    1
     9     1     2   ar
    10     2     3   ar
    11     3     7    1
    12     7     8   am
    13     8     9    2
    14     8    10   am
    15    10    13    1
    16    13    14    1
    17    14    15    1
    18    14    16    1
    19    16    17    1
    20    17    18    1
    21    18    19    1
    22    19    20    1
    23     3     4   ar
    24     4     5   ar
    25     5     6    1
    26    28    29   ar
    27    29    24   ar
    28     5     1   ar
    29    20    18    1
    30     7    11    1
    31    10    12    1
@<TRIPOS>MOLECULE
*****
 29 31 0 0 0
SMALL
GASTEIGER

@<TRIPOS>ATOM
      1 C         143.2462  139.2185  164.1616 C.ar    1  UNL1        0.0873
      2 S         142.6467  138.2363  163.1994 S.2     1  UNL1       -0.0433
      3 C         143.4548  138.2728  161.9361 C.ar    1  UNL1        0.1669
      4 N         144.5537  139.2776  162.1177 N.ar    1  UNL1       -0.2276
      5 C         144.4247  139.8621  163.4932 C.ar    1  UNL1        0.0750
      6 C         145.3175  140.9066  164.0946 C.3     1  UNL1        0.0534
      7 N         143.2074  137.4492  160.7071 N.am    1  UNL1       -0.2484
      8 C         143.0322  138.1204  159.3772 C.2     1  UNL1        0.3060
      9 O         143.1043  139.6153  159.2763 O.2     1  UNL1       -0.2524
     10 N         142.7848  137.2968  158.1482 N.am    1  UNL1       -0.2862
     11 H         143.1601  136.4681  160.7734 H       1  UNL1        0.1583
     12 H         142.7375  136.3157  158.2144 H       1  UNL1        0.1511
     13 C         142.6095  137.9680  156.8183 C.3     1  UNL1        0.1203
     14 C         143.6880  137.8692  155.7804 C.3     1  UNL1        0.1348
     15 C         143.9606  139.0293  154.8694 C.3     1  UNL1        0.0339
     16 O         144.4937  136.6105  155.6535 O.3     1  UNL1       -0.3545
     17 C         143.8186  135.3211  155.2908 C.3     1  UNL1        0.1420
     18 C         143.6323  134.2541  156.3286 C.3     1  UNL1        0.0297
     19 C         142.9825  132.9795  156.7791 C.3     1  UNL1        0.0026
     20 C         143.9595  133.6808  157.6755 C.3     1  UNL1        0.0026
     21 C         142.2609  139.7947  166.9360 C.1     1  UNL1       -0.0577
     22 C         142.7535  139.5066  165.5489 C.1     1  UNL1       -0.0519
     23 C         138.3346  140.3127  170.3000 C.3     1  UNL1        0.0327
     24 C         139.8051  140.3417  170.0052 C.ar    1  UNL1       -0.0021
     25 C         140.7829  140.6588  171.0976 C.ar    1  UNL1        0.0946
     26 N         142.2533  140.6879  170.8028 N.ar    1  UNL1       -0.2420
     27 C         142.7460  140.3998  169.4157 C.ar    1  UNL1        0.1070
     28 C         141.7683  140.0827  168.3233 C.ar    1  UNL1        0.0608
     29 C         140.2978  140.0537  168.6181 C.ar    1  UNL1        0.0071
@<TRIPOS>BOND
     1    23    24    1
     2    24    25   ar
     3    25    26   ar
     4    26    27   ar
     5    27    28   ar
     6    28    21    1
     7    21    22    3
     8    22     1    1
     9     1     2   ar
    10     2     3   ar
    11     3     7    1
    12     7     8   am
    13     8     9    2
    14     8    10   am
    15    10    13    1
    16    13    14    1
    17    14    15    1
    18    14    16    1
    19    16    17    1
    20    17    18    1
    21    18    19    1
    22    19    20    1
    23     3     4   ar
    24     4     5   ar
    25     5     6    1
    26    28    29   ar
    27    29    24   ar
    28     5     1   ar
    29    20    18    1
    30     7    11    1
    31    10    12    1
@<TRIPOS>MOLECULE
*****
 29 31 0 0 0
SMALL
GASTEIGER

@<TRIPOS>ATOM
      1 C         140.2672  143.9797  164.5142 C.ar    1  UNL1        0.0873
      2 S         141.3731  144.3247  163.5614 S.2     1  UNL1       -0.0433
      3 C         140.7619  144.9865  162.3619 C.ar    1  UNL1        0.1669
      4 N         139.2783  145.0506  162.5736 N.ar    1  UNL1       -0.2276
      5 C         138.9725  144.4284  163.9038 C.ar    1  UNL1        0.0750
      6 C         137.6112  144.2807  164.5161 C.3     1  UNL1        0.0534
      7 N         141.5041  145.4950  161.1617 N.am    1  UNL1       -0.2484
      8 C         141.4398  144.7423  159.8658 C.2     1  UNL1        0.3060
      9 O         140.6334  143.4811  159.7703 O.2     1  UNL1       -0.2524
     10 N         142.1819  145.2508  158.6655 N.am    1  UNL1       -0.2862
     11 H         142.0333  146.3228  161.2244 H       1  UNL1        0.1583
     12 H         142.7112  146.0786  158.7282 H       1  UNL1        0.1511
     13 C         142.1177  144.4982  157.3697 C.3     1  UNL1        0.1203
     14 C         142.8629  143.2056  157.2153 C.3     1  UNL1        0.1348
     15 C         142.4063  142.1922  156.2080 C.3     1  UNL1        0.0339
     16 O         144.0648  142.9263  158.0682 O.3     1  UNL1       -0.3545
     17 C         144.9689  141.7763  157.7367 C.3     1  UNL1        0.1420
     18 C         146.1019  141.9668  156.7723 C.3     1  UNL1        0.0297
     19 C         147.3601  142.6777  156.3704 C.3     1  UNL1        0.0026
     20 C         146.8061  141.5859  155.5039 C.3     1  UNL1        0.0026
     21 C         140.5884  142.6296  167.1739 C.1     1  UNL1       -0.0577
     22 C         140.4278  143.3046  165.8441 C.1     1  UNL1       -0.0519
     23 C         142.5024  138.7461  170.0471 C.3     1  UNL1        0.0327
     24 C         141.7060  140.0127  169.9403 C.ar    1  UNL1       -0.0021
     25 C         141.0703  140.6043  171.1634 C.ar    1  UNL1        0.0946
     26 N         140.2739  141.8709  171.0566 N.ar    1  UNL1       -0.2420
     27 C         140.1133  142.5460  169.7268 C.ar    1  UNL1        0.1070
     28 C         140.7490  141.9545  168.5038 C.ar    1  UNL1        0.0608
     29 C         141.5454  140.6878  168.6105 C.ar    1  UNL1        0.0071
@<TRIPOS>BOND
     1    23    24    1
     2    24    25   ar
     3    25    26   ar
     4    26    27   ar
     5    27    28   ar
     6    28    21    1
     7    21    22    3
     8    22     1    1
     9     1     2   ar
    10     2     3   ar
    11     3     7    1
    12     7     8   am
    13     8     9    2
    14     8    10   am
    15    10    13    1
    16    13    14    1
    17    14    15    1
    18    14    16    1
    19    16    17    1
    20    17    18    1
    21    18    19    1
    22    19    20    1
    23     3     4   ar
    24     4     5   ar
    25     5     6    1
    26    28    29   ar
    27    29    24   ar
    28     5     1   ar
    29    20    18    1
    30     7    11    1
    31    10    12    1
@<TRIPOS>MOLECULE
*****
 29 31 0 0 0
SMALL
GASTEIGER

@<TRIPOS>ATOM
      1 C         139.9827  143.9572  164.4684 C.ar    1  UNL1        0.0873
      2 S         141.0302  144.5642  163.5827 S.2     1  UNL1       -0.0433
      3 C         140.3526  145.0725  162.3447 C.ar    1  UNL1        0.1669
      4 N         138.8864  144.7796  162.4653 N.ar    1  UNL1       -0.2276
      5 C         138.6578  144.0903  163.7778 C.ar    1  UNL1        0.0750
      6 C         137.3364  143.6173  164.3068 C.3     1  UNL1        0.0534
      7 N         141.0235  145.7539  161.1890 N.am    1  UNL1       -0.2484
      8 C         141.2953  144.9935  159.9249 C.2     1  UNL1        0.3060
      9 O         140.8962  143.5516  159.8166 O.2     1  UNL1       -0.2524
     10 N         141.9661  145.6750  158.7693 N.am    1  UNL1       -0.2862
     11 H         141.2854  146.7003  161.2602 H       1  UNL1        0.1583
     12 H         142.2280  146.6213  158.8404 H       1  UNL1        0.1511
     13 C         142.2379  144.9146  157.5052 C.3     1  UNL1        0.1203
     14 C         141.1688  144.7896  156.4606 C.3     1  UNL1        0.1348
     15 C         141.0604  145.8156  155.3717 C.3     1  UNL1        0.0339
     16 O         140.2080  143.6386  156.5047 O.3     1  UNL1       -0.3545
     17 C         139.5057  143.1994  155.2542 C.3     1  UNL1        0.1420
     18 C         138.0592  143.5390  155.0477 C.3     1  UNL1        0.0297
     19 C         136.6138  143.3281  155.3889 C.3     1  UNL1        0.0026
     20 C         136.9993  144.3378  154.3489 C.3     1  UNL1        0.0026
     21 C         140.4548  142.6981  167.1501 C.1     1  UNL1       -0.0577
     22 C         140.2188  143.3277  165.8093 C.1     1  UNL1       -0.0519
     23 C         142.4936  138.8888  170.0367 C.3     1  UNL1        0.0327
     24 C         141.7102  140.1639  169.9343 C.ar    1  UNL1       -0.0021
     25 C         141.1630  140.8094  171.1727 C.ar    1  UNL1        0.0946
     26 N         140.3797  142.0845  171.0703 N.ar    1  UNL1       -0.2420
     27 C         140.1436  142.7141  169.7295 C.ar    1  UNL1        0.1070
     28 C         140.6908  142.0686  168.4911 C.ar    1  UNL1        0.0608
     29 C         141.4742  140.7935  168.5935 C.ar    1  UNL1        0.0071
@<TRIPOS>BOND
     1    23    24    1
     2    24    25   ar
     3    25    26   ar
     4    26    27   ar
     5    27    28   ar
     6    28    21    1
     7    21    22    3
     8    22     1    1
     9     1     2   ar
    10     2     3   ar
    11     3     7    1
    12     7     8   am
    13     8     9    2
    14     8    10   am
    15    10    13    1
    16    13    14    1
    17    14    15    1
    18    14    16    1
    19    16    17    1
    20    17    18    1
    21    18    19    1
    22    19    20    1
    23     3     4   ar
    24     4     5   ar
    25     5     6    1
    26    28    29   ar
    27    29    24   ar
    28     5     1   ar
    29    20    18    1
    30     7    11    1
    31    10    12    1
@<TRIPOS>MOLECULE
*****
 29 31 0 0 0
SMALL
GASTEIGER

@<TRIPOS>ATOM
      1 C         139.1278  139.3668  164.2208 C.ar    1  UNL1        0.0873
      2 S         138.1973  140.0498  163.2629 S.2     1  UNL1       -0.0433
      3 C         138.1572  139.2417  161.9998 C.ar    1  UNL1        0.1669
      4 N         139.0630  138.0592  162.1772 N.ar    1  UNL1       -0.2276
      5 C         139.6628  138.1366  163.5498 C.ar    1  UNL1        0.0750
      6 C         140.6282  137.1559  164.1467 C.3     1  UNL1        0.0534
      7 N         137.3527  139.5601  160.7745 N.am    1  UNL1       -0.2484
      8 C         138.0377  140.0540  159.5349 C.2     1  UNL1        0.3060
      9 O         139.5274  140.2294  159.5206 O.2     1  UNL1       -0.2524
     10 N         137.2332  140.3724  158.3096 N.am    1  UNL1       -0.2862
     11 H         136.3750  139.4449  160.7840 H       1  UNL1        0.1583
     12 H         136.2555  140.2572  158.3190 H       1  UNL1        0.1511
     13 C         137.9182  140.8662  157.0700 C.3     1  UNL1        0.1203
     14 C         137.8469  140.0650  155.8039 C.3     1  UNL1        0.1348
     15 C         137.2905  140.6831  154.5555 C.3     1  UNL1        0.0339
     16 O         138.3321  138.6458  155.7861 O.3     1  UNL1       -0.3545
     17 C         139.5706  138.2670  156.5428 C.3     1  UNL1        0.1420
     18 C         140.4052  137.1083  156.0835 C.3     1  UNL1        0.0297
     19 C         140.6349  135.9670  155.1376 C.3     1  UNL1        0.0026
     20 C         141.6210  136.2428  156.2337 C.3     1  UNL1        0.0026
     21 C         139.8006  140.2979  166.9922 C.1     1  UNL1       -0.0577
     22 C         139.4642  139.8323  165.6066 C.1     1  UNL1       -0.0519
     23 C         142.8727  142.9715  170.2194 C.3     1  UNL1        0.0327
     24 C         141.6731  142.1003  169.9915 C.ar    1  UNL1       -0.0021
     25 C         140.8099  141.6946  171.1492 C.ar    1  UNL1        0.0946
     26 N         139.6103  140.8234  170.9213 N.ar    1  UNL1       -0.2420
     27 C         139.2739  140.3578  169.5356 C.ar    1  UNL1        0.1070
     28 C         140.1370  140.7635  168.3779 C.ar    1  UNL1        0.0608
     29 C         141.3366  141.6347  168.6058 C.ar    1  UNL1        0.0071
@<TRIPOS>BOND
     1    23    24    1
     2    24    25   ar
     3    25    26   ar
     4    26    27   ar
     5    27    28   ar
     6    28    21    1
     7    21    22    3
     8    22     1    1
     9     1     2   ar
    10     2     3   ar
    11     3     7    1
    12     7     8   am
    13     8     9    2
    14     8    10   am
    15    10    13    1
    16    13    14    1
    17    14    15    1
    18    14    16    1
    19    16    17    1
    20    17    18    1
    21    18    19    1
    22    19    20    1
    23     3     4   ar
    24     4     5   ar
    25     5     6    1
    26    28    29   ar
    27    29    24   ar
    28     5     1   ar
    29    20    18    1
    30     7    11    1
    31    10    12    1
@<TRIPOS>MOLECULE
*****
 29 31 0 0 0
SMALL
GASTEIGER

@<TRIPOS>ATOM
      1 C         143.0743  139.2001  158.9062 C.ar    1  UNL1        0.0873
      2 S         142.8755  140.6618  158.6340 S.2     1  UNL1       -0.0433
      3 C         143.1561  141.4118  159.9024 C.ar    1  UNL1        0.1669
      4 N         143.5283  140.4136  160.9584 N.ar    1  UNL1       -0.2276
      5 C         143.4778  139.0468  160.3427 C.ar    1  UNL1        0.0750
      6 C         143.7780  137.7536  161.0409 C.3     1  UNL1        0.0534
      7 N         143.0781  142.8988  160.0831 N.am    1  UNL1       -0.2484
      8 C         141.7841  143.5378  160.4922 C.2     1  UNL1        0.3060
      9 O         140.5682  142.6897  160.7206 O.2     1  UNL1       -0.2524
     10 N         141.7061  145.0248  160.6728 N.am    1  UNL1       -0.2862
     11 H         143.8762  143.4554  159.9332 H       1  UNL1        0.1583
     12 H         142.5042  145.5814  160.5229 H       1  UNL1        0.1511
     13 C         140.4123  145.6638  161.0819 C.3     1  UNL1        0.1203
     14 C         139.7539  145.2666  162.3698 C.3     1  UNL1        0.1348
     15 C         140.5657  145.1651  163.6271 C.3     1  UNL1        0.0339
     16 O         138.2837  144.9708  162.4005 O.3     1  UNL1       -0.3545
     17 C         137.6916  144.2307  163.5631 C.3     1  UNL1        0.1420
     18 C         137.7192  142.7311  163.5902 C.3     1  UNL1        0.0297
     19 C         137.4495  141.4147  162.9237 C.3     1  UNL1        0.0026
     20 C         138.0365  141.4504  164.3035 C.3     1  UNL1        0.0026
     21 C         142.7262  136.9743  156.9250 C.1     1  UNL1       -0.0577
     22 C         142.9002  138.0872  157.9156 C.1     1  UNL1       -0.0519
     23 C         142.3406  131.8988  155.8807 C.3     1  UNL1        0.0327
     24 C         142.3593  133.3237  155.4123 C.ar    1  UNL1       -0.0021
     25 C         142.2040  133.6357  153.9534 C.ar    1  UNL1        0.0946
     26 N         142.2227  135.0606  153.4850 N.ar    1  UNL1       -0.2420
     27 C         142.3967  136.1734  154.4755 C.ar    1  UNL1        0.1070
     28 C         142.5521  135.8614  155.9344 C.ar    1  UNL1        0.0608
     29 C         142.5334  134.4366  156.4028 C.ar    1  UNL1        0.0071
@<TRIPOS>BOND
     1    23    24    1
     2    24    25   ar
     3    25    26   ar
     4    26    27   ar
     5    27    28   ar
     6    28    21    1
     7    21    22    3
     8    22     1    1
     9     1     2   ar
    10     2     3   ar
    11     3     7    1
    12     7     8   am
    13     8     9    2
    14     8    10   am
    15    10    13    1
    16    13    14    1
    17    14    15    1
    18    14    16    1
    19    16    17    1
    20    17    18    1
    21    18    19    1
    22    19    20    1
    23     3     4   ar
    24     4     5   ar
    25     5     6    1
    26    28    29   ar
    27    29    24   ar
    28     5     1   ar
    29    20    18    1
    30     7    11    1
    31    10    12    1
@<TRIPOS>MOLECULE
*****
 29 31 0 0 0
SMALL
GASTEIGER

@<TRIPOS>ATOM
      1 C         141.8142  139.0807  157.4766 C.ar    1  UNL1        0.0873
      2 S         140.4861  139.4940  158.0383 S.2     1  UNL1       -0.0433
      3 C         140.5262  140.9736  158.2821 C.ar    1  UNL1        0.1669
      4 N         141.8791  141.4746  157.8712 N.ar    1  UNL1       -0.2276
      5 C         142.6751  140.3047  157.3734 C.ar    1  UNL1        0.0750
      6 C         144.0844  140.3508  156.8620 C.3     1  UNL1        0.0534
      7 N         139.4096  141.8059  158.8391 N.am    1  UNL1       -0.2484
      8 C         139.2503  141.9505  160.3237 C.2     1  UNL1        0.3060
      9 O         140.2077  141.2626  161.2511 O.2     1  UNL1       -0.2524
     10 N         138.1336  142.7828  160.8807 N.am    1  UNL1       -0.2862
     11 H         138.7812  142.2574  158.2304 H       1  UNL1        0.1583
     12 H         137.5053  143.2343  160.2719 H       1  UNL1        0.1511
     13 C         137.9744  142.9273  162.3651 C.3     1  UNL1        0.1203
     14 C         138.1257  144.2740  163.0081 C.3     1  UNL1        0.1348
     15 C         138.0073  144.4118  164.4970 C.3     1  UNL1        0.0339
     16 O         138.3955  145.4829  162.1622 O.3     1  UNL1       -0.3545
     17 C         139.7963  145.7965  161.7270 C.3     1  UNL1        0.1420
     18 C         140.9612  145.2605  162.5054 C.3     1  UNL1        0.0297
     19 C         141.7053  145.1230  163.8005 C.3     1  UNL1        0.0026
     20 C         142.2346  144.4697  162.5585 C.3     1  UNL1        0.0026
     21 C         142.6089  136.2950  156.6968 C.1     1  UNL1       -0.0577
     22 C         142.2116  137.6878  157.0867 C.1     1  UNL1       -0.0519
     23 C         144.9987  131.8181  157.8133 C.3     1  UNL1        0.0327
     24 C         144.2012  132.6637  156.8651 C.ar    1  UNL1       -0.0021
     25 C         143.8010  132.1164  155.5271 C.ar    1  UNL1        0.0946
     26 N         143.0035  132.9620  154.5790 N.ar    1  UNL1       -0.2420
     27 C         142.6061  134.3548  154.9688 C.ar    1  UNL1        0.1070
     28 C         143.0063  134.9021  156.3068 C.ar    1  UNL1        0.0608
     29 C         143.8038  134.0565  157.2550 C.ar    1  UNL1        0.0071
@<TRIPOS>BOND
     1    23    24    1
     2    24    25   ar
     3    25    26   ar
     4    26    27   ar
     5    27    28   ar
     6    28    21    1
     7    21    22    3
     8    22     1    1
     9     1     2   ar
    10     2     3   ar
    11     3     7    1
    12     7     8   am
    13     8     9    2
    14     8    10   am
    15    10    13    1
    16    13    14    1
    17    14    15    1
    18    14    16    1
    19    16    17    1
    20    17    18    1
    21    18    19    1
    22    19    20    1
    23     3     4   ar
    24     4     5   ar
    25     5     6    1
    26    28    29   ar
    27    29    24   ar
    28     5     1   ar
    29    20    18    1
    30     7    11    1
    31    10    12    1
