@<TRIPOS>MOLECULE
*****
 32 35 0 0 0
SMALL
GASTEIGER

@<TRIPOS>ATOM
      1 C         142.2937  143.5237  158.6856 C.2     1  UNL1        0.0596
      2 C         141.7874  142.5847  159.7402 C.2     1  UNL1        0.0324
      3 C         140.7233  143.0347  160.6967 C.2     1  UNL1        0.0889
      4 N         140.0334  142.3371  161.8313 N.2     1  UNL1       -0.2236
      5 C         139.0492  143.2949  162.4346 C.2     1  UNL1        0.1859
      6 N         139.1308  144.5845  161.6728 N.2     1  UNL1       -0.2387
      7 C         140.1655  144.4237  160.5988 C.3     1  UNL1        0.1679
      8 C         140.6718  145.3626  159.5442 C.2     1  UNL1        0.0164
      9 C         141.7359  144.9126  158.5876 C.2     1  UNL1        0.0690
     10 CL        142.2422  145.8516  157.5331 Cl      1  UNL1       -0.0812
     11 N         145.4861  142.1735  155.8158 N.3     1  UNL1       -0.2698
     12 C         145.7855  142.2626  157.2829 C.3     1  UNL1        0.0938
     13 C         144.7214  142.7127  158.2395 C.3     1  UNL1        0.1081
     14 N         143.3579  143.0736  157.7289 N.pl3   1  UNL1       -0.3040
     15 C         143.0585  142.9844  156.2618 C.3     1  UNL1        0.1081
     16 C         144.1226  142.5343  155.3053 C.3     1  UNL1        0.0938
     17 C         147.9978  141.9073  155.2067 C.3     1  UNL1        0.0188
     18 C         146.5502  141.7234  154.8591 C.3     1  UNL1        0.0722
     19 S         138.1425  143.0127  163.5957 S.3     1  UNL1       -0.0777
     20 C         138.3510  141.7826  164.4284 C.3     1  UNL1        0.0462
     21 C         137.3375  141.2664  163.4505 C.3     1  UNL1        0.0113
     22 C         139.2921  142.7260  165.1172 C.3     1  UNL1        0.0121
     23 C         140.0897  142.2601  166.2990 C.3     1  UNL1        0.0205
     24 C         139.9462  140.8507  166.7921 C.3     1  UNL1        0.0748
     25 C         139.0052  139.9074  166.1034 C.3     1  UNL1        0.0205
     26 C         138.2075  140.3733  164.9215 C.3     1  UNL1        0.0121
     27 N         140.7439  140.3848  167.9739 N.am    1  UNL1       -0.2723
     28 C         142.1262  139.8369  167.7768 C.2     1  UNL1        0.4017
     29 O         142.7109  139.7550  166.3979 O.2     1  UNL1       -0.2264
     30 H         140.3601  140.4386  168.8790 H       1  UNL1        0.1527
     31 O         142.9239  139.3710  168.9586 O.3     1  UNL1       -0.4306
     32 C         142.7373  140.0263  170.2949 C.3     1  UNL1        0.2573
@<TRIPOS>BOND
     1    17    18    1
     2    18    11    1
     3    11    12    1
     4    12    13    1
     5    13    14    1
     6    14     1    1
     7     1     2    2
     8     2     3    1
     9     3     4    2
    10     4     5    1
    11     5    19    1
    12    19    20    1
    13    20    21    1
    14    20    22    1
    15    22    23    1
    16    23    24    1
    17    24    27    1
    18    27    28   am
    19    28    29    2
    20    28    31    1
    21    31    32    1
    22    24    25    1
    23    25    26    1
    24     5     6    2
    25     6     7    1
    26     7     8    1
    27     8     9    2
    28     9    10    1
    29    14    15    1
    30    15    16    1
    31    16    11    1
    32     9     1    1
    33     7     3    1
    34    26    20    1
    35    27    30    1
@<TRIPOS>MOLECULE
*****
 32 35 0 0 0
SMALL
GASTEIGER

@<TRIPOS>ATOM
      1 C         140.1167  142.3262  163.8234 C.2     1  UNL1        0.0596
      2 C         140.5155  141.5777  162.5860 C.2     1  UNL1        0.0324
      3 C         139.8415  141.8755  161.2795 C.2     1  UNL1        0.0889
      4 N         140.0219  141.3048  159.9041 N.2     1  UNL1       -0.2236
      5 C         139.0606  141.9982  158.9848 C.2     1  UNL1        0.1859
      6 N         138.2861  142.9975  159.7921 N.2     1  UNL1       -0.2387
      7 C         138.7687  142.9216  161.2103 C.3     1  UNL1        0.1679
      8 C         138.3700  143.6700  162.4476 C.2     1  UNL1        0.0164
      9 C         139.0440  143.3722  163.7541 C.2     1  UNL1        0.0690
     10 CL        138.6451  144.1206  164.9914 Cl      1  UNL1       -0.0812
     11 N         142.1387  141.4328  167.7431 N.3     1  UNL1       -0.2698
     12 C         140.7708  140.8849  167.4628 C.3     1  UNL1        0.0938
     13 C         140.0968  141.1827  166.1563 C.3     1  UNL1        0.1081
     14 N         140.7907  142.0284  165.1300 N.pl3   1  UNL1       -0.3040
     15 C         142.1586  142.5763  165.4102 C.3     1  UNL1        0.1081
     16 C         142.8326  142.2786  166.7168 C.3     1  UNL1        0.0938
     17 C         143.6263  142.1944  169.7323 C.3     1  UNL1        0.0188
     18 C         142.8127  141.1351  169.0496 C.3     1  UNL1        0.0722
     19 S         138.9017  141.7381  157.5161 S.3     1  UNL1       -0.0777
     20 C         138.1996  142.7402  156.6486 C.3     1  UNL1        0.0462
     21 C         137.0932  141.7469  156.8469 C.3     1  UNL1        0.0113
     22 C         139.5498  143.3855  156.7516 C.3     1  UNL1        0.0121
     23 C         139.8137  144.6880  156.0560 C.3     1  UNL1        0.0205
     24 C         138.7273  145.3452  155.2573 C.3     1  UNL1        0.0748
     25 C         137.3772  144.6999  155.1543 C.3     1  UNL1        0.0205
     26 C         137.1133  143.3975  155.8499 C.3     1  UNL1        0.0121
     27 N         138.9912  146.6477  154.5616 N.am    1  UNL1       -0.2723
     28 C         139.0312  147.9238  155.3490 C.2     1  UNL1        0.4017
     29 O         138.8073  147.8974  156.8320 O.2     1  UNL1       -0.2264
     30 H         139.1381  146.6650  153.5883 H       1  UNL1        0.1527
     31 O         139.2951  149.2263  154.6534 O.3     1  UNL1       -0.4306
     32 C         138.8643  150.5158  155.2871 C.3     1  UNL1        0.2573
@<TRIPOS>BOND
     1    17    18    1
     2    18    11    1
     3    11    12    1
     4    12    13    1
     5    13    14    1
     6    14     1    1
     7     1     2    2
     8     2     3    1
     9     3     4    2
    10     4     5    1
    11     5    19    1
    12    19    20    1
    13    20    21    1
    14    20    22    1
    15    22    23    1
    16    23    24    1
    17    24    27    1
    18    27    28   am
    19    28    29    2
    20    28    31    1
    21    31    32    1
    22    24    25    1
    23    25    26    1
    24     5     6    2
    25     6     7    1
    26     7     8    1
    27     8     9    2
    28     9    10    1
    29    14    15    1
    30    15    16    1
    31    16    11    1
    32     9     1    1
    33     7     3    1
    34    26    20    1
    35    27    30    1
@<TRIPOS>MOLECULE
*****
 32 35 0 0 0
SMALL
GASTEIGER

@<TRIPOS>ATOM
      1 C         140.4028  139.3027  163.9489 C.2     1  UNL1        0.0596
      2 C         141.0240  139.8767  162.7101 C.2     1  UNL1        0.0324
      3 C         140.6040  139.3767  161.3597 C.2     1  UNL1        0.0889
      4 N         141.0362  139.7492  159.9725 N.2     1  UNL1       -0.2236
      5 C         140.2622  138.9054  159.0036 C.2     1  UNL1        0.1859
      6 N         139.3516  138.0113  159.7920 N.2     1  UNL1       -0.2387
      7 C         139.5629  138.3026  161.2482 C.3     1  UNL1        0.1679
      8 C         138.9417  137.7286  162.4870 C.2     1  UNL1        0.0164
      9 C         139.3617  138.2287  163.8373 C.2     1  UNL1        0.0690
     10 CL        138.7405  137.6546  165.0762 Cl      1  UNL1       -0.0812
     11 N         141.6629  140.8028  168.0001 N.3     1  UNL1       -0.2698
     12 C         142.5018  139.7876  167.2821 C.3     1  UNL1        0.0938
     13 C         142.0817  139.2876  165.9317 C.3     1  UNL1        0.1081
     14 N         140.8229  139.8027  165.2994 N.pl3   1  UNL1       -0.3040
     15 C         139.9840  140.8180  166.0174 C.3     1  UNL1        0.1081
     16 C         140.4040  141.3180  167.3678 C.3     1  UNL1        0.0938
     17 C         143.3517  142.0893  169.4978 C.3     1  UNL1        0.0188
     18 C         142.0828  141.3029  169.3505 C.3     1  UNL1        0.0722
     19 S         140.3783  138.9481  157.5087 S.3     1  UNL1       -0.0777
     20 C         140.6937  137.6962  156.7448 C.3     1  UNL1        0.0462
     21 C         139.2957  137.9494  156.2639 C.3     1  UNL1        0.0113
     22 C         141.9823  137.8778  157.4910 C.3     1  UNL1        0.0121
     23 C         143.1007  136.8955  157.3064 C.3     1  UNL1        0.0205
     24 C         142.9306  135.7315  156.3756 C.3     1  UNL1        0.0748
     25 C         141.6421  135.5500  155.6294 C.3     1  UNL1        0.0205
     26 C         140.5237  136.5324  155.8140 C.3     1  UNL1        0.0121
     27 N         144.0491  134.7492  156.1909 N.am    1  UNL1       -0.2723
     28 C         143.8712  133.3217  156.6157 C.2     1  UNL1        0.4017
     29 O         142.5749  132.8765  157.2251 O.2     1  UNL1       -0.2264
     30 H         144.8999  135.0414  155.7910 H       1  UNL1        0.1527
     31 O         144.9896  132.3393  156.4311 O.3     1  UNL1       -0.4306
     32 C         144.7204  131.0066  155.7975 C.3     1  UNL1        0.2573
@<TRIPOS>BOND
     1    17    18    1
     2    18    11    1
     3    11    12    1
     4    12    13    1
     5    13    14    1
     6    14     1    1
     7     1     2    2
     8     2     3    1
     9     3     4    2
    10     4     5    1
    11     5    19    1
    12    19    20    1
    13    20    21    1
    14    20    22    1
    15    22    23    1
    16    23    24    1
    17    24    27    1
    18    27    28   am
    19    28    29    2
    20    28    31    1
    21    31    32    1
    22    24    25    1
    23    25    26    1
    24     5     6    2
    25     6     7    1
    26     7     8    1
    27     8     9    2
    28     9    10    1
    29    14    15    1
    30    15    16    1
    31    16    11    1
    32     9     1    1
    33     7     3    1
    34    26    20    1
    35    27    30    1
@<TRIPOS>MOLECULE
*****
 32 35 0 0 0
SMALL
GASTEIGER

@<TRIPOS>ATOM
      1 C         143.3374  140.4244  158.7723 C.2     1  UNL1        0.0596
      2 C         143.7013  139.4818  159.8810 C.2     1  UNL1        0.0324
      3 C         142.7026  139.1657  160.9546 C.2     1  UNL1        0.0889
      4 N         142.7751  138.2810  162.1638 N.2     1  UNL1       -0.2236
      5 C         141.4574  138.3606  162.8759 C.2     1  UNL1        0.1859
      6 N         140.5705  139.2944  162.1069 N.2     1  UNL1       -0.2387
      7 C         141.3401  139.7920  160.9195 C.3     1  UNL1        0.1679
      8 C         140.9763  140.7345  159.8107 C.2     1  UNL1        0.0164
      9 C         141.9750  141.0507  158.7372 C.2     1  UNL1        0.0690
     10 CL        141.6111  141.9932  157.6284 Cl      1  UNL1       -0.0812
     11 N         146.3336  141.3730  155.5514 N.3     1  UNL1       -0.2698
     12 C         146.2572  142.2295  156.7805 C.3     1  UNL1        0.0938
     13 C         145.2585  141.9133  157.8541 C.3     1  UNL1        0.1081
     14 N         144.3362  140.7406  157.6986 N.pl3   1  UNL1       -0.3040
     15 C         144.4126  139.8841  156.4696 C.3     1  UNL1        0.1081
     16 C         145.4113  140.2003  155.3960 C.3     1  UNL1        0.0938
     17 C         148.7296  142.0900  154.8478 C.3     1  UNL1        0.0188
     18 C         147.3323  141.6891  154.4778 C.3     1  UNL1        0.0722
     19 S         141.0908  137.6339  164.1359 S.3     1  UNL1       -0.0777
     20 C         140.1062  138.2397  165.0918 C.3     1  UNL1        0.0462
     21 C         139.1946  137.3341  164.3179 C.3     1  UNL1        0.0113
     22 C         141.3598  138.9348  165.5337 C.3     1  UNL1        0.0121
     23 C         141.3123  139.9213  166.6627 C.3     1  UNL1        0.0205
     24 C         140.0110  140.2126  167.3498 C.3     1  UNL1        0.0748
     25 C         138.7575  139.5174  166.9078 C.3     1  UNL1        0.0205
     26 C         138.8051  138.5310  165.7788 C.3     1  UNL1        0.0121
     27 N         139.9635  141.1991  168.4788 N.am    1  UNL1       -0.2723
     28 C         140.2373  140.7463  169.8823 C.2     1  UNL1        0.4017
     29 O         140.5587  139.3071  170.1569 O.2     1  UNL1       -0.2264
     30 H         139.7525  142.1437  168.2986 H       1  UNL1        0.1527
     31 O         140.1898  141.7327  171.0114 O.3     1  UNL1       -0.4306
     32 C         139.7893  143.1543  170.7491 C.3     1  UNL1        0.2573
@<TRIPOS>BOND
     1    17    18    1
     2    18    11    1
     3    11    12    1
     4    12    13    1
     5    13    14    1
     6    14     1    1
     7     1     2    2
     8     2     3    1
     9     3     4    2
    10     4     5    1
    11     5    19    1
    12    19    20    1
    13    20    21    1
    14    20    22    1
    15    22    23    1
    16    23    24    1
    17    24    27    1
    18    27    28   am
    19    28    29    2
    20    28    31    1
    21    31    32    1
    22    24    25    1
    23    25    26    1
    24     5     6    2
    25     6     7    1
    26     7     8    1
    27     8     9    2
    28     9    10    1
    29    14    15    1
    30    15    16    1
    31    16    11    1
    32     9     1    1
    33     7     3    1
    34    26    20    1
    35    27    30    1
@<TRIPOS>MOLECULE
*****
 32 35 0 0 0
SMALL
GASTEIGER

@<TRIPOS>ATOM
      1 C         141.3006  140.2947  160.0701 C.2     1  UNL1        0.0596
      2 C         140.7940  139.1911  159.1894 C.2     1  UNL1        0.0324
      3 C         141.6769  138.6202  158.1195 C.2     1  UNL1        0.0889
      4 N         141.4541  137.5362  157.1070 N.2     1  UNL1       -0.2236
      5 C         142.7059  137.3989  156.2920 C.2     1  UNL1        0.1859
      6 N         143.7023  138.3981  156.8009 N.2     1  UNL1       -0.2387
      7 C         143.0663  139.1529  157.9304 C.3     1  UNL1        0.1679
      8 C         143.5728  140.2564  158.8111 C.2     1  UNL1        0.0164
      9 C         142.6899  140.8273  159.8809 C.2     1  UNL1        0.0690
     10 CL        143.1966  141.9309  160.7617 Cl      1  UNL1       -0.0812
     11 N         138.6519  142.0074  163.2797 N.3     1  UNL1       -0.2698
     12 C         138.6724  142.6276  161.9141 C.3     1  UNL1        0.0938
     13 C         139.5552  142.0567  160.8442 C.3     1  UNL1        0.1081
     14 N         140.4176  140.8656  161.1400 N.pl3   1  UNL1       -0.3040
     15 C         140.3972  140.2454  162.5056 C.3     1  UNL1        0.1081
     16 C         139.5143  140.8162  163.5754 C.3     1  UNL1        0.0938
     17 C         137.7654  144.0555  164.6100 C.3     1  UNL1        0.0188
     18 C         137.7690  142.5782  164.3495 C.3     1  UNL1        0.0722
     19 S         142.9232  136.4322  155.1659 S.3     1  UNL1       -0.0777
     20 C         142.4359  135.0187  155.2862 C.3     1  UNL1        0.0462
     21 C         141.4893  135.5326  154.2422 C.3     1  UNL1        0.0113
     22 C         143.5517  134.9957  156.2884 C.3     1  UNL1        0.0121
     23 C         143.8514  133.7377  157.0484 C.3     1  UNL1        0.0205
     24 C         143.0353  132.5027  156.8062 C.3     1  UNL1        0.0748
     25 C         141.9195  132.5257  155.8040 C.3     1  UNL1        0.0205
     26 C         141.6198  133.7837  155.0440 C.3     1  UNL1        0.0121
     27 N         143.3350  131.2447  157.5662 N.am    1  UNL1       -0.2723
     28 C         144.3331  130.2629  157.0277 C.2     1  UNL1        0.4017
     29 O         145.0314  130.5392  155.7292 O.2     1  UNL1       -0.2264
     30 H         142.8767  131.0634  158.4184 H       1  UNL1        0.1527
     31 O         144.6329  129.0049  157.7876 O.3     1  UNL1       -0.4306
     32 C         144.2369  128.8873  159.2296 C.3     1  UNL1        0.2573
@<TRIPOS>BOND
     1    17    18    1
     2    18    11    1
     3    11    12    1
     4    12    13    1
     5    13    14    1
     6    14     1    1
     7     1     2    2
     8     2     3    1
     9     3     4    2
    10     4     5    1
    11     5    19    1
    12    19    20    1
    13    20    21    1
    14    20    22    1
    15    22    23    1
    16    23    24    1
    17    24    27    1
    18    27    28   am
    19    28    29    2
    20    28    31    1
    21    31    32    1
    22    24    25    1
    23    25    26    1
    24     5     6    2
    25     6     7    1
    26     7     8    1
    27     8     9    2
    28     9    10    1
    29    14    15    1
    30    15    16    1
    31    16    11    1
    32     9     1    1
    33     7     3    1
    34    26    20    1
    35    27    30    1
@<TRIPOS>MOLECULE
*****
 32 35 0 0 0
SMALL
GASTEIGER

@<TRIPOS>ATOM
      1 C         139.8427  143.3093  158.3511 C.2     1  UNL1        0.0596
      2 C         138.9924  142.0741  158.3866 C.2     1  UNL1        0.0324
      3 C         137.9855  141.8254  157.3030 C.2     1  UNL1        0.0889
      4 N         137.0141  140.7057  157.0733 N.2     1  UNL1       -0.2236
      5 C         136.2572  141.0002  155.8123 C.2     1  UNL1        0.1859
      6 N         136.7607  142.3018  155.2626 N.2     1  UNL1       -0.2387
      7 C         137.8289  142.8118  156.1839 C.3     1  UNL1        0.1679
      8 C         138.6792  144.0470  156.1484 C.2     1  UNL1        0.0164
      9 C         139.6861  144.2957  157.2321 C.2     1  UNL1        0.0690
     10 CL        140.5364  145.5310  157.1965 Cl      1  UNL1       -0.0812
     11 N         142.8635  144.0556  161.6020 N.3     1  UNL1       -0.2698
     12 C         143.2396  143.2377  160.4022 C.3     1  UNL1        0.0938
     13 C         142.2326  142.9890  159.3186 C.3     1  UNL1        0.1081
     14 N         140.8497  143.5581  159.4348 N.pl3   1  UNL1       -0.3040
     15 C         140.4736  144.3760  160.6347 C.3     1  UNL1        0.1081
     16 C         141.4805  144.6247  161.7183 C.3     1  UNL1        0.0938
     17 C         143.5171  145.1805  163.8509 C.3     1  UNL1        0.0188
     18 C         143.8703  144.3043  162.6857 C.3     1  UNL1        0.0722
     19 S         135.1849  140.1435  155.2071 S.3     1  UNL1       -0.0777
     20 C         133.7405  140.4594  155.4600 C.3     1  UNL1        0.0462
     21 C         133.9729  141.2757  154.2233 C.3     1  UNL1        0.0113
     22 C         134.0097  139.5334  156.6090 C.3     1  UNL1        0.0121
     23 C         132.9153  139.2067  157.5814 C.3     1  UNL1        0.0205
     24 C         131.5516  139.8062  157.4048 C.3     1  UNL1        0.0748
     25 C         131.2825  140.7322  156.2559 C.3     1  UNL1        0.0205
     26 C         132.3769  141.0588  155.2835 C.3     1  UNL1        0.0121
     27 N         130.4572  139.4796  158.3772 N.am    1  UNL1       -0.2723
     28 C         129.5403  138.3221  158.1134 C.2     1  UNL1        0.4017
     29 O         129.7179  137.4912  156.8772 O.2     1  UNL1       -0.2264
     30 H         130.3406  140.0249  159.1886 H       1  UNL1        0.1527
     31 O         128.4459  137.9954  159.0857 O.3     1  UNL1       -0.4306
     32 C         128.0665  138.9842  160.1480 C.3     1  UNL1        0.2573
@<TRIPOS>BOND
     1    17    18    1
     2    18    11    1
     3    11    12    1
     4    12    13    1
     5    13    14    1
     6    14     1    1
     7     1     2    2
     8     2     3    1
     9     3     4    2
    10     4     5    1
    11     5    19    1
    12    19    20    1
    13    20    21    1
    14    20    22    1
    15    22    23    1
    16    23    24    1
    17    24    27    1
    18    27    28   am
    19    28    29    2
    20    28    31    1
    21    31    32    1
    22    24    25    1
    23    25    26    1
    24     5     6    2
    25     6     7    1
    26     7     8    1
    27     8     9    2
    28     9    10    1
    29    14    15    1
    30    15    16    1
    31    16    11    1
    32     9     1    1
    33     7     3    1
    34    26    20    1
    35    27    30    1
@<TRIPOS>MOLECULE
*****
 32 35 0 0 0
SMALL
GASTEIGER

@<TRIPOS>ATOM
      1 C         139.3714  139.7926  162.4439 C.2     1  UNL1        0.0596
      2 C         140.3104  139.0415  161.5472 C.2     1  UNL1        0.0324
      3 C         140.0497  138.9798  160.0713 C.2     1  UNL1        0.0889
      4 N         140.7929  138.3204  158.9475 N.2     1  UNL1       -0.2236
      5 C         140.0524  138.6023  157.6738 C.2     1  UNL1        0.1859
      6 N         138.8516  139.4359  158.0105 N.2     1  UNL1       -0.2387
      7 C         138.8499  139.6692  159.4922 C.3     1  UNL1        0.1679
      8 C         137.9110  140.4203  160.3889 C.2     1  UNL1        0.0164
      9 C         138.1717  140.4819  161.8648 C.2     1  UNL1        0.0690
     10 CL        137.2326  141.2331  162.7615 Cl      1  UNL1       -0.0812
     11 N         140.1536  139.9777  166.8716 N.3     1  UNL1       -0.2698
     12 C         140.8119  140.9630  165.9518 C.3     1  UNL1        0.0938
     13 C         140.5512  140.9013  164.4760 C.3     1  UNL1        0.1081
     14 N         139.6321  139.8543  163.9199 N.pl3   1  UNL1       -0.3040
     15 C         138.9738  138.8691  164.8396 C.3     1  UNL1        0.1081
     16 C         139.2346  138.9308  166.3155 C.3     1  UNL1        0.0938
     17 C         139.3366  140.5060  169.2806 C.3     1  UNL1        0.0188
     18 C         140.4143  140.0394  168.3474 C.3     1  UNL1        0.0722
     19 S         140.4440  138.1331  156.3040 S.3     1  UNL1       -0.0777
     20 C         141.8471  137.6723  156.0417 C.3     1  UNL1        0.0462
     21 C         142.0628  139.1562  156.0776 C.3     1  UNL1        0.0113
     22 C         141.1442  136.3483  156.0969 C.3     1  UNL1        0.0121
     23 C         141.9192  135.0789  155.9022 C.3     1  UNL1        0.0205
     24 C         143.3973  135.1335  155.6523 C.3     1  UNL1        0.0748
     25 C         144.1002  136.4574  155.5972 C.3     1  UNL1        0.0205
     26 C         143.3252  137.7268  155.7918 C.3     1  UNL1        0.0121
     27 N         144.1724  133.8641  155.4577 N.am    1  UNL1       -0.2723
     28 C         144.6065  133.0605  156.6475 C.2     1  UNL1        0.4017
     29 O         144.2656  133.5263  158.0320 O.2     1  UNL1       -0.2264
     30 H         144.3961  133.5583  154.5490 H       1  UNL1        0.1527
     31 O         145.3816  131.7911  156.4530 O.3     1  UNL1       -0.4306
     32 C         144.7857  130.6615  155.6663 C.3     1  UNL1        0.2573
@<TRIPOS>BOND
     1    17    18    1
     2    18    11    1
     3    11    12    1
     4    12    13    1
     5    13    14    1
     6    14     1    1
     7     1     2    2
     8     2     3    1
     9     3     4    2
    10     4     5    1
    11     5    19    1
    12    19    20    1
    13    20    21    1
    14    20    22    1
    15    22    23    1
    16    23    24    1
    17    24    27    1
    18    27    28   am
    19    28    29    2
    20    28    31    1
    21    31    32    1
    22    24    25    1
    23    25    26    1
    24     5     6    2
    25     6     7    1
    26     7     8    1
    27     8     9    2
    28     9    10    1
    29    14    15    1
    30    15    16    1
    31    16    11    1
    32     9     1    1
    33     7     3    1
    34    26    20    1
    35    27    30    1
@<TRIPOS>MOLECULE
*****
 32 35 0 0 0
SMALL
GASTEIGER

@<TRIPOS>ATOM
      1 C         139.0833  142.6923  157.8431 C.2     1  UNL1        0.0596
      2 C         139.2945  142.4079  159.3008 C.2     1  UNL1        0.0324
      3 C         140.0344  143.3922  160.1573 C.2     1  UNL1        0.0889
      4 N         140.3933  143.3845  161.6137 N.2     1  UNL1       -0.2236
      5 C         141.1439  144.6483  161.9128 C.2     1  UNL1        0.1859
      6 N         141.2489  145.4370  160.6412 N.2     1  UNL1       -0.2387
      7 C         140.5632  144.6607  159.5562 C.3     1  UNL1        0.1679
      8 C         140.3520  144.9450  158.0987 C.2     1  UNL1        0.0164
      9 C         139.6120  143.9607  157.2421 C.2     1  UNL1        0.0690
     10 CL        139.4008  144.2450  155.7845 Cl      1  UNL1       -0.0812
     11 N         136.8632  139.7395  155.2735 N.3     1  UNL1       -0.2698
     12 C         136.1376  140.9090  155.8699 C.3     1  UNL1        0.0938
     13 C         136.8776  141.8933  156.7264 C.3     1  UNL1        0.1081
     14 N         138.3432  141.7080  156.9866 N.pl3   1  UNL1       -0.3040
     15 C         139.0688  140.5384  156.3902 C.3     1  UNL1        0.1081
     16 C         138.3288  139.5542  155.5337 C.3     1  UNL1        0.0938
     17 C         136.8831  137.7977  153.5475 C.3     1  UNL1        0.0188
     18 C         136.1233  138.7552  154.4170 C.3     1  UNL1        0.0722
     19 S         141.6931  145.0525  163.2488 S.3     1  UNL1       -0.0777
     20 C         142.6227  144.1349  163.9863 C.3     1  UNL1        0.0462
     21 C         143.5919  144.7854  163.0443 C.3     1  UNL1        0.0113
     22 C         141.3306  143.8031  164.6723 C.3     1  UNL1        0.0121
     23 C         141.3046  142.7796  165.7685 C.3     1  UNL1        0.0205
     24 C         142.5709  142.0879  166.1789 C.3     1  UNL1        0.0748
     25 C         143.8629  142.4197  165.4930 C.3     1  UNL1        0.0205
     26 C         143.8888  143.4432  164.3967 C.3     1  UNL1        0.0121
     27 N         142.5449  141.0644  167.2751 N.am    1  UNL1       -0.2723
     28 C         143.1068  141.3973  168.6255 C.2     1  UNL1        0.4017
     29 O         143.6946  142.7538  168.8795 O.2     1  UNL1       -0.2264
     30 H         142.1591  140.1741  167.1084 H       1  UNL1        0.1527
     31 O         143.0809  140.3739  169.7218 O.3     1  UNL1       -0.4306
     32 C         142.0928  140.5009  170.8432 C.3     1  UNL1        0.2573
@<TRIPOS>BOND
     1    17    18    1
     2    18    11    1
     3    11    12    1
     4    12    13    1
     5    13    14    1
     6    14     1    1
     7     1     2    2
     8     2     3    1
     9     3     4    2
    10     4     5    1
    11     5    19    1
    12    19    20    1
    13    20    21    1
    14    20    22    1
    15    22    23    1
    16    23    24    1
    17    24    27    1
    18    27    28   am
    19    28    29    2
    20    28    31    1
    21    31    32    1
    22    24    25    1
    23    25    26    1
    24     5     6    2
    25     6     7    1
    26     7     8    1
    27     8     9    2
    28     9    10    1
    29    14    15    1
    30    15    16    1
    31    16    11    1
    32     9     1    1
    33     7     3    1
    34    26    20    1
    35    27    30    1
@<TRIPOS>MOLECULE
*****
 32 35 0 0 0
SMALL
GASTEIGER

@<TRIPOS>ATOM
      1 C         142.4467  140.1449  163.6124 C.2     1  UNL1        0.0596
      2 C         141.6208  140.3307  162.3741 C.2     1  UNL1        0.0324
      3 C         142.1925  139.9820  161.0319 C.2     1  UNL1        0.0889
      4 N         141.6211  140.0577  159.6471 N.2     1  UNL1       -0.2236
      5 C         142.6656  139.5700  158.6874 C.2     1  UNL1        0.1859
      6 N         143.8825  139.1928  159.4790 N.2     1  UNL1       -0.2387
      7 C         143.5902  139.4474  160.9281 C.3     1  UNL1        0.1679
      8 C         144.4161  139.2616  162.1663 C.2     1  UNL1        0.0164
      9 C         143.8443  139.6103  163.5085 C.2     1  UNL1        0.0690
     10 CL        144.6703  139.4245  164.7468 Cl      1  UNL1       -0.0812
     11 N         140.7314  141.1912  167.6390 N.3     1  UNL1       -0.2698
     12 C         141.4667  142.2293  166.8443 C.3     1  UNL1        0.0938
     13 C         142.0385  141.8806  165.5021 C.3     1  UNL1        0.1081
     14 N         141.8749  140.4936  164.9547 N.pl3   1  UNL1       -0.3040
     15 C         141.1397  139.4555  165.7494 C.3     1  UNL1        0.1081
     16 C         140.5679  139.8042  167.0915 C.3     1  UNL1        0.0938
     17 C         139.2174  140.5932  169.6639 C.3     1  UNL1        0.0188
     18 C         140.1597  141.5398  168.9812 C.3     1  UNL1        0.0722
     19 S         142.5188  139.4759  157.1976 S.3     1  UNL1       -0.0777
     20 C         143.2696  138.4249  156.4349 C.3     1  UNL1        0.0462
     21 C         144.0788  139.6356  156.0752 C.3     1  UNL1        0.0113
     22 C         142.1997  137.5791  157.0594 C.3     1  UNL1        0.0121
     23 C         142.1615  136.1029  156.7964 C.3     1  UNL1        0.0205
     24 C         143.1934  135.4723  155.9087 C.3     1  UNL1        0.0748
     25 C         144.2632  136.3181  155.2842 C.3     1  UNL1        0.0205
     26 C         144.3014  137.7944  155.5473 C.3     1  UNL1        0.0121
     27 N         143.1552  133.9961  155.6457 N.am    1  UNL1       -0.2723
     28 C         143.6920  133.0381  156.6676 C.2     1  UNL1        0.4017
     29 O         144.2669  133.5565  157.9524 O.2     1  UNL1       -0.2264
     30 H         142.7779  133.6559  154.8024 H       1  UNL1        0.1527
     31 O         143.6539  131.5618  156.4046 O.3     1  UNL1       -0.4306
     32 C         144.8585  130.8693  155.8397 C.3     1  UNL1        0.2573
@<TRIPOS>BOND
     1    17    18    1
     2    18    11    1
     3    11    12    1
     4    12    13    1
     5    13    14    1
     6    14     1    1
     7     1     2    2
     8     2     3    1
     9     3     4    2
    10     4     5    1
    11     5    19    1
    12    19    20    1
    13    20    21    1
    14    20    22    1
    15    22    23    1
    16    23    24    1
    17    24    27    1
    18    27    28   am
    19    28    29    2
    20    28    31    1
    21    31    32    1
    22    24    25    1
    23    25    26    1
    24     5     6    2
    25     6     7    1
    26     7     8    1
    27     8     9    2
    28     9    10    1
    29    14    15    1
    30    15    16    1
    31    16    11    1
    32     9     1    1
    33     7     3    1
    34    26    20    1
    35    27    30    1
