@<TRIPOS>MOLECULE
*****
 25 28 0 0 0
SMALL
GASTEIGER

@<TRIPOS>ATOM
      1 C         142.5820  139.3331  164.5226 C.ar    1  UNL1        0.0790
      2 C         143.6372  139.1084  163.4804 C.ar    1  UNL1        0.0365
      3 C         143.0466  138.2518  162.4000 C.ar    1  UNL1        0.0962
      4 N         141.6264  137.9470  162.7745 N.ar    1  UNL1       -0.1723
      5 N         141.3393  138.6153  164.0863 N.ar    1  UNL1       -0.2531
      6 C         143.0608  141.7383  168.2957 C.ar    1  UNL1       -0.0225
      7 C         142.7500  140.2730  168.3747 C.ar    1  UNL1       -0.0042
      8 C         142.5904  139.4713  167.1170 C.ar    1  UNL1        0.0012
      9 C         142.7416  140.1348  165.7803 C.ar    1  UNL1        0.0173
     10 C         143.0524  141.6001  165.7013 C.ar    1  UNL1        0.0012
     11 C         143.2119  142.4019  166.9590 C.ar    1  UNL1       -0.0042
     12 C         144.5814  142.7290  170.1547 C.3     1  UNL1        0.0047
     13 C         143.2203  142.5400  169.5534 C.3     1  UNL1        0.0224
     14 C         142.0188  143.1527  170.2098 C.3     1  UNL1        0.0047
     15 C         140.0379  138.5732  164.8311 C.3     1  UNL1        0.1052
     16 C         139.0330  137.5065  165.1510 C.3     1  UNL1        0.0244
     17 C         138.1975  138.5136  165.8843 C.3     1  UNL1        0.0040
     18 C         139.2024  139.5803  165.5643 C.3     1  UNL1        0.0244
     19 C         143.7523  137.7823  161.1624 C.3     1  UNL1        0.1206
     20 N         143.4441  138.4149  159.8377 N.3     1  UNL1       -0.2633
     21 C         142.7613  137.6173  158.7664 C.3     1  UNL1        0.1049
     22 C         142.4531  138.2500  157.4417 C.3     1  UNL1        0.1595
     23 O         142.8278  139.6801  157.1884 O.3     1  UNL1       -0.3508
     24 C         143.5105  140.4777  158.2596 C.3     1  UNL1        0.1595
     25 C         143.8187  139.8451  159.5844 C.3     1  UNL1        0.1049
@<TRIPOS>BOND
     1    12    13    1
     2    13    14    1
     3    13     6    1
     4     6     7   ar
     5     7     8   ar
     6     8     9   ar
     7     9     1    1
     8     1     2   ar
     9     2     3   ar
    10     3    19    1
    11    19    20    1
    12    20    21    1
    13    21    22    1
    14    22    23    1
    15    23    24    1
    16    24    25    1
    17     3     4   ar
    18     4     5   ar
    19     5    15    1
    20    15    16    1
    21    16    17    1
    22    17    18    1
    23     9    10   ar
    24    10    11   ar
    25    11     6   ar
    26     5     1   ar
    27    18    15    1
    28    25    20    1
@<TRIPOS>MOLECULE
*****
 25 28 0 0 0
SMALL
GASTEIGER

@<TRIPOS>ATOM
      1 C         139.5371  141.4759  165.0991 C.ar    1  UNL1        0.0790
      2 C         139.4100  142.5943  164.1077 C.ar    1  UNL1        0.0365
      3 C         138.3675  142.2057  163.1016 C.ar    1  UNL1        0.0962
      4 N         137.8502  140.8471  163.4713 N.ar    1  UNL1       -0.1723
      5 N         138.5731  140.3961  164.7059 N.ar    1  UNL1       -0.2531
      6 C         142.3214  141.3775  168.6329 C.ar    1  UNL1       -0.0225
      7 C         141.3192  142.4854  168.4984 C.ar    1  UNL1       -0.0042
      8 C         140.3911  142.5182  167.3205 C.ar    1  UNL1        0.0012
      9 C         140.4652  141.4431  166.2771 C.ar    1  UNL1        0.0173
     10 C         141.4675  140.3353  166.4116 C.ar    1  UNL1        0.0012
     11 C         142.3956  140.3025  167.5895 C.ar    1  UNL1       -0.0042
     12 C         144.2231  142.4645  170.0300 C.3     1  UNL1        0.0047
     13 C         143.2495  141.3447  169.8109 C.3     1  UNL1        0.0224
     14 C         143.2041  140.1921  170.7697 C.3     1  UNL1        0.0047
     15 C         138.3679  139.0939  165.4215 C.3     1  UNL1        0.1052
     16 C         138.7032  137.6606  165.1326 C.3     1  UNL1        0.0244
     17 C         138.0778  137.2522  166.4334 C.3     1  UNL1        0.0040
     18 C         137.7426  138.6854  166.7222 C.3     1  UNL1        0.0244
     19 C         137.9207  143.0308  161.9313 C.3     1  UNL1        0.1206
     20 N         138.9315  143.5622  160.9588 N.3     1  UNL1       -0.2633
     21 C         139.7603  144.7599  161.3177 C.3     1  UNL1        0.1049
     22 C         140.7711  145.2912  160.3452 C.3     1  UNL1        0.1595
     23 O         140.9532  144.6249  159.0137 O.3     1  UNL1       -0.3508
     24 C         140.1245  143.4274  158.6547 C.3     1  UNL1        0.1595
     25 C         139.1136  142.8959  159.6273 C.3     1  UNL1        0.1049
@<TRIPOS>BOND
     1    12    13    1
     2    13    14    1
     3    13     6    1
     4     6     7   ar
     5     7     8   ar
     6     8     9   ar
     7     9     1    1
     8     1     2   ar
     9     2     3   ar
    10     3    19    1
    11    19    20    1
    12    20    21    1
    13    21    22    1
    14    22    23    1
    15    23    24    1
    16    24    25    1
    17     3     4   ar
    18     4     5   ar
    19     5    15    1
    20    15    16    1
    21    16    17    1
    22    17    18    1
    23     9    10   ar
    24    10    11   ar
    25    11     6   ar
    26     5     1   ar
    27    18    15    1
    28    25    20    1
@<TRIPOS>MOLECULE
*****
 25 28 0 0 0
SMALL
GASTEIGER

@<TRIPOS>ATOM
      1 C         139.2797  140.3085  164.5766 C.ar    1  UNL1        0.0790
      2 C         139.0232  139.2103  163.5876 C.ar    1  UNL1        0.0365
      3 C         138.2935  139.8010  162.4177 C.ar    1  UNL1        0.0962
      4 N         138.0990  141.2644  162.6837 N.ar    1  UNL1       -0.1723
      5 N         138.7085  141.5780  164.0179 N.ar    1  UNL1       -0.2531
      6 C         141.3919  139.8715  168.5259 C.ar    1  UNL1       -0.0225
      7 C         142.1821  139.8931  167.2512 C.ar    1  UNL1       -0.0042
      8 C         141.4780  140.0387  165.9347 C.ar    1  UNL1        0.0012
      9 C         139.9838  140.1628  165.8930 C.ar    1  UNL1        0.0173
     10 C         139.1936  140.1412  167.1678 C.ar    1  UNL1        0.0012
     11 C         139.8977  139.9956  168.4843 C.ar    1  UNL1       -0.0042
     12 C         142.0854  140.8567  170.8278 C.3     1  UNL1        0.0047
     13 C         142.0960  139.7258  169.8424 C.3     1  UNL1        0.0224
     14 C         142.8106  138.4493  170.1735 C.3     1  UNL1        0.0047
     15 C         138.7411  142.9247  164.6776 C.3     1  UNL1        0.1052
     16 C         139.6908  143.6320  165.5986 C.3     1  UNL1        0.0244
     17 C         138.7873  144.8293  165.6106 C.3     1  UNL1        0.0040
     18 C         137.8378  144.1221  164.6896 C.3     1  UNL1        0.0244
     19 C         137.8382  139.0587  161.1964 C.3     1  UNL1        0.1206
     20 N         138.4752  139.3388  159.8676 N.3     1  UNL1       -0.2633
     21 C         137.9716  140.4673  159.0174 C.3     1  UNL1        0.1049
     22 C         138.6086  140.7474  157.6886 C.3     1  UNL1        0.1595
     23 O         139.7493  139.8990  157.2100 O.3     1  UNL1       -0.3508
     24 C         140.2529  138.7705  158.0601 C.3     1  UNL1        0.1595
     25 C         139.6159  138.4903  159.3890 C.3     1  UNL1        0.1049
@<TRIPOS>BOND
     1    12    13    1
     2    13    14    1
     3    13     6    1
     4     6     7   ar
     5     7     8   ar
     6     8     9   ar
     7     9     1    1
     8     1     2   ar
     9     2     3   ar
    10     3    19    1
    11    19    20    1
    12    20    21    1
    13    21    22    1
    14    22    23    1
    15    23    24    1
    16    24    25    1
    17     3     4   ar
    18     4     5   ar
    19     5    15    1
    20    15    16    1
    21    16    17    1
    22    17    18    1
    23     9    10   ar
    24    10    11   ar
    25    11     6   ar
    26     5     1   ar
    27    18    15    1
    28    25    20    1
@<TRIPOS>MOLECULE
*****
 25 28 0 0 0
SMALL
GASTEIGER

@<TRIPOS>ATOM
      1 C         140.0461  140.9012  164.6604 C.ar    1  UNL1        0.0790
      2 C         140.2011  141.7766  163.4522 C.ar    1  UNL1        0.0365
      3 C         139.2130  141.3210  162.4197 C.ar    1  UNL1        0.0962
      4 N         138.4473  140.1640  162.9897 N.ar    1  UNL1       -0.1723
      5 N         138.9622  139.9045  164.3745 N.ar    1  UNL1       -0.2531
      6 C         142.4165  141.2106  168.4729 C.ar    1  UNL1       -0.0225
      7 C         142.6454  140.0596  167.5387 C.ar    1  UNL1       -0.0042
      8 C         141.8553  139.9565  166.2679 C.ar    1  UNL1        0.0012
      9 C         140.8362  141.0043  165.9312 C.ar    1  UNL1        0.0173
     10 C         140.6073  142.1554  166.8653 C.ar    1  UNL1        0.0012
     11 C         141.3975  142.2585  168.1362 C.ar    1  UNL1       -0.0042
     12 C         143.0590  140.2651  170.8059 C.3     1  UNL1        0.0047
     13 C         143.2067  141.3138  169.7437 C.3     1  UNL1        0.0224
     14 C         144.1445  142.4656  169.9524 C.3     1  UNL1        0.0047
     15 C         138.4780  138.8360  165.3093 C.3     1  UNL1        0.1052
     16 C         137.7983  138.8248  166.6465 C.3     1  UNL1        0.0244
     17 C         137.7934  137.3249  166.6314 C.3     1  UNL1        0.0040
     18 C         138.4731  137.3361  165.2943 C.3     1  UNL1        0.0244
     19 C         139.0239  141.9177  161.0565 C.3     1  UNL1        0.1206
     20 N         139.9950  142.9394  160.5438 N.3     1  UNL1       -0.2633
     21 C         141.1191  142.5202  159.6433 C.3     1  UNL1        0.1049
     22 C         142.0902  143.5419  159.1306 C.3     1  UNL1        0.1595
     23 O         141.9373  144.9828  159.5183 O.3     1  UNL1       -0.3508
     24 C         140.8133  145.4021  160.4186 C.3     1  UNL1        0.1595
     25 C         139.8421  144.3803  160.9315 C.3     1  UNL1        0.1049
@<TRIPOS>BOND
     1    12    13    1
     2    13    14    1
     3    13     6    1
     4     6     7   ar
     5     7     8   ar
     6     8     9   ar
     7     9     1    1
     8     1     2   ar
     9     2     3   ar
    10     3    19    1
    11    19    20    1
    12    20    21    1
    13    21    22    1
    14    22    23    1
    15    23    24    1
    16    24    25    1
    17     3     4   ar
    18     4     5   ar
    19     5    15    1
    20    15    16    1
    21    16    17    1
    22    17    18    1
    23     9    10   ar
    24    10    11   ar
    25    11     6   ar
    26     5     1   ar
    27    18    15    1
    28    25    20    1
@<TRIPOS>MOLECULE
*****
 25 28 0 0 0
SMALL
GASTEIGER

@<TRIPOS>ATOM
      1 C         140.0658  140.6418  163.9924 C.ar    1  UNL1        0.0790
      2 C         140.2797  139.6772  162.8638 C.ar    1  UNL1        0.0365
      3 C         139.8240  140.3379  161.5965 C.ar    1  UNL1        0.0962
      4 N         139.3284  141.7108  161.9420 N.ar    1  UNL1       -0.1723
      5 N         139.4779  141.8986  163.4227 N.ar    1  UNL1       -0.2531
      6 C         141.0204  139.8959  168.3262 C.ar    1  UNL1       -0.0225
      7 C         139.5920  139.9500  167.8714 C.ar    1  UNL1       -0.0042
      8 C         139.2739  140.1986  166.4267 C.ar    1  UNL1        0.0012
      9 C         140.3840  140.3932  165.4370 C.ar    1  UNL1        0.0173
     10 C         141.8123  140.3392  165.8919 C.ar    1  UNL1        0.0012
     11 C         142.1305  140.0905  167.3365 C.ar    1  UNL1       -0.0042
     12 C         142.5479  138.8426  170.1448 C.3     1  UNL1        0.0047
     13 C         141.3385  139.6473  169.7709 C.3     1  UNL1        0.0224
     14 C         140.4473  140.2034  170.8416 C.3     1  UNL1        0.0047
     15 C         139.1049  143.1276  164.1976 C.3     1  UNL1        0.1052
     16 C         137.8448  143.9185  164.3899 C.3     1  UNL1        0.0244
     17 C         138.5772  144.8657  165.2935 C.3     1  UNL1        0.0040
     18 C         139.8372  144.0748  165.1011 C.3     1  UNL1        0.0244
     19 C         139.8579  139.7320  160.2248 C.3     1  UNL1        0.1206
     20 N         141.1693  139.5370  159.5232 N.3     1  UNL1       -0.2633
     21 C         141.3258  138.4341  158.5187 C.3     1  UNL1        0.1049
     22 C         142.6372  138.2392  157.8172 C.3     1  UNL1        0.1595
     23 O         143.7921  139.1472  158.1201 O.3     1  UNL1       -0.3508
     24 C         143.6357  140.2500  159.1246 C.3     1  UNL1        0.1595
     25 C         142.3242  140.4450  159.8262 C.3     1  UNL1        0.1049
@<TRIPOS>BOND
     1    12    13    1
     2    13    14    1
     3    13     6    1
     4     6     7   ar
     5     7     8   ar
     6     8     9   ar
     7     9     1    1
     8     1     2   ar
     9     2     3   ar
    10     3    19    1
    11    19    20    1
    12    20    21    1
    13    21    22    1
    14    22    23    1
    15    23    24    1
    16    24    25    1
    17     3     4   ar
    18     4     5   ar
    19     5    15    1
    20    15    16    1
    21    16    17    1
    22    17    18    1
    23     9    10   ar
    24    10    11   ar
    25    11     6   ar
    26     5     1   ar
    27    18    15    1
    28    25    20    1
@<TRIPOS>MOLECULE
*****
 25 28 0 0 0
SMALL
GASTEIGER

@<TRIPOS>ATOM
      1 C         140.2474  139.8517  164.4768 C.ar    1  UNL1        0.0790
      2 C         139.0150  139.6491  163.6461 C.ar    1  UNL1        0.0365
      3 C         139.4137  138.9258  162.3939 C.ar    1  UNL1        0.0962
      4 N         140.8926  138.6814  162.4508 N.ar    1  UNL1       -0.1723
      5 N         141.4078  139.2536  163.7381 N.ar    1  UNL1       -0.2531
      6 C         140.4311  141.8950  168.4820 C.ar    1  UNL1       -0.0225
      7 C         140.7183  142.6705  167.2305 C.ar    1  UNL1       -0.0042
      8 C         140.6571  141.9894  165.8955 C.ar    1  UNL1        0.0012
      9 C         140.3086  140.5328  165.8119 C.ar    1  UNL1        0.0173
     10 C         140.0214  139.7574  167.0633 C.ar    1  UNL1        0.0012
     11 C         140.0826  140.4385  168.3984 C.ar    1  UNL1       -0.0042
     12 C         140.3745  144.0690  169.9035 C.3     1  UNL1        0.0047
     13 C         140.4923  142.5761  169.8170 C.3     1  UNL1        0.0224
     14 C         140.6713  141.7644  171.0656 C.3     1  UNL1        0.0047
     15 C         142.8332  139.2317  164.2047 C.3     1  UNL1        0.1052
     16 C         143.5334  138.7864  165.4544 C.3     1  UNL1        0.0244
     17 C         144.8490  139.2005  164.8647 C.3     1  UNL1        0.0040
     18 C         144.1488  139.6457  163.6151 C.3     1  UNL1        0.0244
     19 C         138.4949  138.5185  161.2804 C.3     1  UNL1        0.1206
     20 N         138.6718  139.1030  159.9104 N.3     1  UNL1       -0.2633
     21 C         137.8251  140.2620  159.4744 C.3     1  UNL1        0.1049
     22 C         138.0019  140.8465  158.1044 C.3     1  UNL1        0.1595
     23 O         139.0254  140.2721  157.1703 O.3     1  UNL1       -0.3508
     24 C         139.8721  139.1132  157.6062 C.3     1  UNL1        0.1595
     25 C         139.6953  138.5286  158.9763 C.3     1  UNL1        0.1049
@<TRIPOS>BOND
     1    12    13    1
     2    13    14    1
     3    13     6    1
     4     6     7   ar
     5     7     8   ar
     6     8     9   ar
     7     9     1    1
     8     1     2   ar
     9     2     3   ar
    10     3    19    1
    11    19    20    1
    12    20    21    1
    13    21    22    1
    14    22    23    1
    15    23    24    1
    16    24    25    1
    17     3     4   ar
    18     4     5   ar
    19     5    15    1
    20    15    16    1
    21    16    17    1
    22    17    18    1
    23     9    10   ar
    24    10    11   ar
    25    11     6   ar
    26     5     1   ar
    27    18    15    1
    28    25    20    1
@<TRIPOS>MOLECULE
*****
 25 28 0 0 0
SMALL
GASTEIGER

@<TRIPOS>ATOM
      1 C         140.9665  140.5935  164.2663 C.ar    1  UNL1        0.0790
      2 C         141.6753  140.9892  163.0049 C.ar    1  UNL1        0.0365
      3 C         141.2254  140.0664  161.9113 C.ar    1  UNL1        0.0962
      4 N         140.2385  139.1003  162.4968 N.ar    1  UNL1       -0.1723
      5 N         140.0786  139.4261  163.9522 N.ar    1  UNL1       -0.2531
      6 C         141.4238  142.5627  168.2866 C.ar    1  UNL1       -0.0225
      7 C         140.3222  142.9906  167.3628 C.ar    1  UNL1       -0.0042
      8 C         140.1698  142.3342  166.0227 C.ar    1  UNL1        0.0012
      9 C         141.1189  141.2499  165.6064 C.ar    1  UNL1        0.0173
     10 C         142.2205  140.8220  166.5302 C.ar    1  UNL1        0.0012
     11 C         142.3729  141.4784  167.8703 C.ar    1  UNL1       -0.0042
     12 C         140.5071  144.1390  170.1372 C.3     1  UNL1        0.0047
     13 C         141.5762  143.2191  169.6268 C.3     1  UNL1        0.0224
     14 C         142.7977  142.9556  170.4564 C.3     1  UNL1        0.0047
     15 C         139.1871  138.7101  164.9231 C.3     1  UNL1        0.1052
     16 C         138.2297  139.1357  165.9967 C.3     1  UNL1        0.0244
     17 C         137.9264  137.6975  166.2962 C.3     1  UNL1        0.0040
     18 C         138.8837  137.2720  165.2228 C.3     1  UNL1        0.0244
     19 C         141.6821  140.1033  160.4830 C.3     1  UNL1        0.1206
     20 N         140.7273  139.7514  159.3810 N.3     1  UNL1       -0.2633
     21 C         139.6154  140.6925  159.0230 C.3     1  UNL1        0.1049
     22 C         138.6606  140.3406  157.9210 C.3     1  UNL1        0.1595
     23 O         138.8177  139.0477  157.1769 O.3     1  UNL1       -0.3508
     24 C         139.9295  138.1066  157.5348 C.3     1  UNL1        0.1595
     25 C         140.8844  138.4585  158.6370 C.3     1  UNL1        0.1049
@<TRIPOS>BOND
     1    12    13    1
     2    13    14    1
     3    13     6    1
     4     6     7   ar
     5     7     8   ar
     6     8     9   ar
     7     9     1    1
     8     1     2   ar
     9     2     3   ar
    10     3    19    1
    11    19    20    1
    12    20    21    1
    13    21    22    1
    14    22    23    1
    15    23    24    1
    16    24    25    1
    17     3     4   ar
    18     4     5   ar
    19     5    15    1
    20    15    16    1
    21    16    17    1
    22    17    18    1
    23     9    10   ar
    24    10    11   ar
    25    11     6   ar
    26     5     1   ar
    27    18    15    1
    28    25    20    1
@<TRIPOS>MOLECULE
*****
 25 28 0 0 0
SMALL
GASTEIGER

@<TRIPOS>ATOM
      1 C         140.7342  143.1783  164.0265 C.ar    1  UNL1        0.0790
      2 C         140.9945  144.4152  163.2189 C.ar    1  UNL1        0.0365
      3 C         140.2625  144.2812  161.9166 C.ar    1  UNL1        0.0962
      4 N         139.5497  142.9614  161.9192 N.ar    1  UNL1       -0.1723
      5 N         139.8412  142.2797  163.2232 N.ar    1  UNL1       -0.2531
      6 C         142.3486  142.3146  168.1372 C.ar    1  UNL1       -0.0225
      7 C         143.2658  142.2895  166.9507 C.ar    1  UNL1       -0.0042
      8 C         142.7277  142.5774  165.5804 C.ar    1  UNL1        0.0012
      9 C         141.2723  142.8904  165.3967 C.ar    1  UNL1        0.0173
     10 C         140.3550  142.9154  166.5833 C.ar    1  UNL1        0.0012
     11 C         140.8932  142.6275  167.9535 C.ar    1  UNL1       -0.0042
     12 C         142.0864  141.1990  170.4688 C.3     1  UNL1        0.0047
     13 C         142.8867  142.0267  169.5074 C.3     1  UNL1        0.0224
     14 C         144.2251  142.5665  169.9162 C.3     1  UNL1        0.0047
     15 C         139.3296  140.9356  163.6491 C.3     1  UNL1        0.1052
     16 C         137.9740  140.3027  163.7590 C.3     1  UNL1        0.0244
     17 C         138.6059  139.0346  164.2514 C.3     1  UNL1        0.0040
     18 C         139.9614  139.6674  164.1415 C.3     1  UNL1        0.0244
     19 C         140.2461  145.2899  160.8065 C.3     1  UNL1        0.1206
     20 N         141.0066  145.0248  159.5410 N.3     1  UNL1       -0.2633
     21 C         142.1043  144.0026  159.5258 C.3     1  UNL1        0.1049
     22 C         142.8647  143.7375  158.2603 C.3     1  UNL1        0.1595
     23 O         142.5274  144.4946  157.0101 O.3     1  UNL1       -0.3508
     24 C         141.4298  145.5168  157.0253 C.3     1  UNL1        0.1595
     25 C         140.6693  145.7819  158.2908 C.3     1  UNL1        0.1049
@<TRIPOS>BOND
     1    12    13    1
     2    13    14    1
     3    13     6    1
     4     6     7   ar
     5     7     8   ar
     6     8     9   ar
     7     9     1    1
     8     1     2   ar
     9     2     3   ar
    10     3    19    1
    11    19    20    1
    12    20    21    1
    13    21    22    1
    14    22    23    1
    15    23    24    1
    16    24    25    1
    17     3     4   ar
    18     4     5   ar
    19     5    15    1
    20    15    16    1
    21    16    17    1
    22    17    18    1
    23     9    10   ar
    24    10    11   ar
    25    11     6   ar
    26     5     1   ar
    27    18    15    1
    28    25    20    1
@<TRIPOS>MOLECULE
*****
 25 28 0 0 0
SMALL
GASTEIGER

@<TRIPOS>ATOM
      1 C         140.1659  141.5793  164.4021 C.ar    1  UNL1        0.0790
      2 C         139.5332  142.6985  163.6292 C.ar    1  UNL1        0.0365
      3 C         139.0106  142.1348  162.3411 C.ar    1  UNL1        0.0962
      4 N         139.3202  140.6673  162.3179 N.ar    1  UNL1       -0.1723
      5 N         140.0342  140.3240  163.5917 N.ar    1  UNL1       -0.2531
      6 C         142.1163  141.9270  168.4425 C.ar    1  UNL1       -0.0225
      7 C         142.9074  142.2132  167.2007 C.ar    1  UNL1       -0.0042
      8 C         142.2572  142.0973  165.8539 C.ar    1  UNL1        0.0012
      9 C         140.8160  141.6952  165.7489 C.ar    1  UNL1        0.0173
     10 C         140.0249  141.4090  166.9907 C.ar    1  UNL1        0.0012
     11 C         140.6750  141.5249  168.3375 C.ar    1  UNL1       -0.0042
     12 C         142.0117  141.6453  171.0232 C.3     1  UNL1        0.0047
     13 C         142.7664  142.0429  169.7893 C.3     1  UNL1        0.0224
     14 C         144.1712  142.5563  169.9023 C.3     1  UNL1        0.0047
     15 C         140.5296  138.9641  163.9858 C.3     1  UNL1        0.1052
     16 C         139.9499  137.5806  163.9773 C.3     1  UNL1        0.0244
     17 C         141.2300  137.0409  164.5431 C.3     1  UNL1        0.0040
     18 C         141.8096  138.4244  164.5516 C.3     1  UNL1        0.0244
     19 C         138.3026  142.9036  161.2652 C.3     1  UNL1        0.1206
     20 N         139.0776  143.4619  160.1086 N.3     1  UNL1       -0.2633
     21 C         140.0546  144.5784  160.3295 C.3     1  UNL1        0.1049
     22 C         140.8296  145.1367  159.1729 C.3     1  UNL1        0.1595
     23 O         140.6277  144.5783  157.7954 O.3     1  UNL1       -0.3508
     24 C         139.6508  143.4618  157.5745 C.3     1  UNL1        0.1595
     25 C         138.8757  142.9035  158.7311 C.3     1  UNL1        0.1049
@<TRIPOS>BOND
     1    12    13    1
     2    13    14    1
     3    13     6    1
     4     6     7   ar
     5     7     8   ar
     6     8     9   ar
     7     9     1    1
     8     1     2   ar
     9     2     3   ar
    10     3    19    1
    11    19    20    1
    12    20    21    1
    13    21    22    1
    14    22    23    1
    15    23    24    1
    16    24    25    1
    17     3     4   ar
    18     4     5   ar
    19     5    15    1
    20    15    16    1
    21    16    17    1
    22    17    18    1
    23     9    10   ar
    24    10    11   ar
    25    11     6   ar
    26     5     1   ar
    27    18    15    1
    28    25    20    1
