@<TRIPOS>MOLECULE
*****
 32 36 0 0 0
SMALL
GASTEIGER

@<TRIPOS>ATOM
      1 O         140.6051  137.1076  163.1212 O.2     1  UNL1       -0.2668
      2 C         140.2901  138.5457  163.4087 C.2     1  UNL1        0.2806
      3 N         140.2945  139.5514  162.2958 N.am    1  UNL1       -0.2999
      4 H         140.0878  140.4953  162.4845 H       1  UNL1        0.1498
      5 C         139.9707  138.9781  164.8091 C.ar    1  UNL1        0.2014
      6 C         138.7977  138.3817  165.5290 C.ar    1  UNL1        0.0843
      7 C         138.4783  138.8141  166.9294 C.ar    1  UNL1        0.2018
      8 O         137.3052  138.2177  167.6493 O.2     1  UNL1       -0.2864
      9 C         139.3320  139.8428  167.6099 C.ar    1  UNL1        0.0736
     10 C         139.0126  140.2752  169.0102 C.ar    1  UNL1        0.0071
     11 C         139.8663  141.3039  169.6906 C.ar    1  UNL1        0.0117
     12 C         141.0393  141.9002  168.9707 C.ar    1  UNL1        0.0607
     13 CL        141.8930  142.9290  169.6512 Cl      1  UNL1       -0.0821
     14 C         141.3587  141.4679  167.5703 C.ar    1  UNL1        0.0490
     15 C         140.5050  140.4392  166.8899 C.ar    1  UNL1        0.1494
     16 O         140.8244  140.0068  165.4895 O.2     1  UNL1       -0.4487
     17 C         140.6138  139.1191  160.8954 C.3     1  UNL1        0.0747
     18 C         139.5060  138.7572  159.9511 C.3     1  UNL1        0.0369
     19 C         139.8253  138.3249  158.5508 C.3     1  UNL1        0.0741
     20 N         141.2526  138.2544  158.0946 N.3     1  UNL1       -0.2688
     21 C         142.3605  138.6163  159.0389 C.3     1  UNL1        0.0741
     22 C         142.0411  139.0486  160.4394 C.3     1  UNL1        0.0369
     23 C         141.5719  137.8221  156.6943 C.3     1  UNL1        0.0992
     24 C         141.8946  136.3855  156.4080 C.ar    1  UNL1       -0.0029
     25 C         141.0820  135.6194  155.4066 C.ar    1  UNL1        0.0004
     26 C         141.4046  134.1828  155.1204 C.ar    1  UNL1        0.0399
     27 C         142.5399  133.5122  155.8355 C.ar    1  UNL1        0.1764
     28 C         143.3524  134.2782  156.8369 C.ar    1  UNL1        0.1762
     29 C         143.0298  135.7148  157.1232 C.ar    1  UNL1        0.0373
     30 O         144.4041  133.3578  157.3819 O.3     1  UNL1       -0.4346
     31 C         144.2415  132.0230  156.7173 C.3     1  UNL1        0.4294
     32 O         143.0893  132.1184  155.7616 O.3     1  UNL1       -0.4346
@<TRIPOS>BOND
     1     1     2    2
     2     2     3   am
     3     3    17    1
     4    17    18    1
     5    18    19    1
     6    19    20    1
     7    20    23    1
     8    23    24    1
     9    24    25   ar
    10    25    26   ar
    11    26    27   ar
    12    27    28   ar
    13    28    29   ar
    14    28    30    1
    15    30    31    1
    16    31    32    1
    17    20    21    1
    18    21    22    1
    19     2     5    1
    20     5     6   ar
    21     6     7   ar
    22     7     8    2
    23     7     9   ar
    24     9    10   ar
    25    10    11   ar
    26    11    12   ar
    27    12    13    1
    28    12    14   ar
    29    14    15   ar
    30    15    16   ar
    31    22    17    1
    32    16     5   ar
    33    29    24   ar
    34    15     9   ar
    35    32    27    1
    36     3     4    1
@<TRIPOS>MOLECULE
*****
 32 36 0 0 0
SMALL
GASTEIGER

@<TRIPOS>ATOM
      1 O         143.3566  139.1129  158.2515 O.2     1  UNL1       -0.2668
      2 C         142.8399  137.7585  158.6371 C.2     1  UNL1        0.2806
      3 N         142.5541  137.4467  160.0762 N.am    1  UNL1       -0.2999
      4 H         142.2149  136.5577  160.3292 H       1  UNL1        0.1498
      5 C         142.6091  136.7160  157.5835 C.ar    1  UNL1        0.2014
      6 C         141.5442  136.9202  156.5470 C.ar    1  UNL1        0.0843
      7 C         141.3133  135.8777  155.4935 C.ar    1  UNL1        0.2018
      8 O         140.2485  136.0819  154.4569 O.2     1  UNL1       -0.2864
      9 C         142.1473  134.6309  155.4765 C.ar    1  UNL1        0.0736
     10 C         141.9164  133.5885  154.4230 C.ar    1  UNL1        0.0071
     11 C         142.7503  132.3418  154.4061 C.ar    1  UNL1        0.0117
     12 C         143.8152  132.1376  155.4426 C.ar    1  UNL1        0.0607
     13 CL        144.6491  130.8909  155.4257 Cl      1  UNL1       -0.0821
     14 C         144.0461  133.1801  156.4961 C.ar    1  UNL1        0.0490
     15 C         143.2121  134.4267  156.5131 C.ar    1  UNL1        0.1494
     16 O         143.4430  135.4693  157.5666 O.2     1  UNL1       -0.4487
     17 C         142.7849  138.4891  161.1297 C.3     1  UNL1        0.0747
     18 C         144.0849  138.5250  161.8772 C.3     1  UNL1        0.0369
     19 C         144.3157  139.5675  162.9307 C.3     1  UNL1        0.0741
     20 N         143.2465  140.5741  163.2367 N.3     1  UNL1       -0.2688
     21 C         141.9466  140.5382  162.4892 C.3     1  UNL1        0.0741
     22 C         141.7158  139.4957  161.4357 C.3     1  UNL1        0.0369
     23 C         143.4774  141.6166  164.2903 C.3     1  UNL1        0.0992
     24 C         143.1795  141.3089  165.7278 C.ar    1  UNL1       -0.0029
     25 C         142.8306  139.9091  166.1385 C.ar    1  UNL1        0.0004
     26 C         142.5328  139.6014  167.5761 C.ar    1  UNL1        0.0399
     27 C         142.5838  140.6936  168.6030 C.ar    1  UNL1        0.1764
     28 C         142.9327  142.0934  168.1923 C.ar    1  UNL1        0.1762
     29 C         143.2306  142.4011  166.7547 C.ar    1  UNL1        0.0373
     30 O         142.9050  142.9568  169.4186 O.3     1  UNL1       -0.4346
     31 C         142.5390  142.0906  170.5872 C.3     1  UNL1        0.4294
     32 O         142.3405  140.6918  170.0831 O.3     1  UNL1       -0.4346
@<TRIPOS>BOND
     1     1     2    2
     2     2     3   am
     3     3    17    1
     4    17    18    1
     5    18    19    1
     6    19    20    1
     7    20    23    1
     8    23    24    1
     9    24    25   ar
    10    25    26   ar
    11    26    27   ar
    12    27    28   ar
    13    28    29   ar
    14    28    30    1
    15    30    31    1
    16    31    32    1
    17    20    21    1
    18    21    22    1
    19     2     5    1
    20     5     6   ar
    21     6     7   ar
    22     7     8    2
    23     7     9   ar
    24     9    10   ar
    25    10    11   ar
    26    11    12   ar
    27    12    13    1
    28    12    14   ar
    29    14    15   ar
    30    15    16   ar
    31    22    17    1
    32    16     5   ar
    33    29    24   ar
    34    15     9   ar
    35    32    27    1
    36     3     4    1
@<TRIPOS>MOLECULE
*****
 32 36 0 0 0
SMALL
GASTEIGER

@<TRIPOS>ATOM
      1 O         138.5858  138.6313  162.5688 O.2     1  UNL1       -0.2668
      2 C         139.6642  139.3154  163.3556 C.2     1  UNL1        0.2806
      3 N         140.9208  139.7659  162.6714 N.am    1  UNL1       -0.2999
      4 H         141.6285  140.2149  163.1879 H       1  UNL1        0.1498
      5 C         139.4860  139.5488  164.8266 C.ar    1  UNL1        0.2014
      6 C         138.5027  138.7242  165.6032 C.ar    1  UNL1        0.0843
      7 C         138.3246  138.9577  167.0741 C.ar    1  UNL1        0.2018
      8 O         137.3413  138.1330  167.8507 O.2     1  UNL1       -0.2864
      9 C         139.1297  140.0158  167.7686 C.ar    1  UNL1        0.0736
     10 C         138.9516  140.2492  169.2395 C.ar    1  UNL1        0.0071
     11 C         139.7567  141.3073  169.9338 C.ar    1  UNL1        0.0117
     12 C         140.7400  142.1319  169.1573 C.ar    1  UNL1        0.0607
     13 CL        141.5452  143.1901  169.8517 Cl      1  UNL1       -0.0821
     14 C         140.9182  141.8985  167.6863 C.ar    1  UNL1        0.0490
     15 C         140.1130  140.8404  166.9920 C.ar    1  UNL1        0.1494
     16 O         140.2912  140.6069  165.5209 O.2     1  UNL1       -0.4487
     17 C         141.0989  139.5325  161.2005 C.3     1  UNL1        0.0747
     18 C         141.9309  138.3809  160.7192 C.3     1  UNL1        0.0369
     19 C         142.1091  138.1474  159.2483 C.3     1  UNL1        0.0741
     20 N         141.4553  139.0656  158.2585 N.3     1  UNL1       -0.2688
     21 C         140.6233  140.2172  158.7398 C.3     1  UNL1        0.0741
     22 C         140.4451  140.4506  160.2108 C.3     1  UNL1        0.0369
     23 C         141.6334  138.8321  156.7876 C.3     1  UNL1        0.0992
     24 C         142.1562  137.5152  156.2951 C.ar    1  UNL1       -0.0029
     25 C         143.6068  137.3684  155.9431 C.ar    1  UNL1        0.0004
     26 C         144.1296  136.0515  155.4506 C.ar    1  UNL1        0.0399
     27 C         143.2017  134.8814  155.3101 C.ar    1  UNL1        0.1764
     28 C         141.7510  135.0282  155.6621 C.ar    1  UNL1        0.1762
     29 C         141.2283  136.3451  156.1546 C.ar    1  UNL1        0.0373
     30 O         141.0801  133.7080  155.4234 O.3     1  UNL1       -0.4346
     31 C         142.1162  132.7453  154.9238 C.3     1  UNL1        0.4294
     32 O         143.4274  133.4705  154.8538 O.3     1  UNL1       -0.4346
@<TRIPOS>BOND
     1     1     2    2
     2     2     3   am
     3     3    17    1
     4    17    18    1
     5    18    19    1
     6    19    20    1
     7    20    23    1
     8    23    24    1
     9    24    25   ar
    10    25    26   ar
    11    26    27   ar
    12    27    28   ar
    13    28    29   ar
    14    28    30    1
    15    30    31    1
    16    31    32    1
    17    20    21    1
    18    21    22    1
    19     2     5    1
    20     5     6   ar
    21     6     7   ar
    22     7     8    2
    23     7     9   ar
    24     9    10   ar
    25    10    11   ar
    26    11    12   ar
    27    12    13    1
    28    12    14   ar
    29    14    15   ar
    30    15    16   ar
    31    22    17    1
    32    16     5   ar
    33    29    24   ar
    34    15     9   ar
    35    32    27    1
    36     3     4    1
@<TRIPOS>MOLECULE
*****
 32 36 0 0 0
SMALL
GASTEIGER

@<TRIPOS>ATOM
      1 O         143.9439  138.7807  159.8094 O.2     1  UNL1       -0.2668
      2 C         143.2217  140.0003  159.3186 C.2     1  UNL1        0.2806
      3 N         142.5475  139.9844  157.9788 N.am    1  UNL1       -0.2999
      4 H         142.0735  140.7849  157.6567 H       1  UNL1        0.1498
      5 C         143.1738  141.2360  160.1677 C.ar    1  UNL1        0.2014
      6 C         142.5159  142.4792  159.6464 C.ar    1  UNL1        0.0843
      7 C         142.4680  143.7148  160.4954 C.ar    1  UNL1        0.2018
      8 O         141.8101  144.9579  159.9741 O.2     1  UNL1       -0.2864
      9 C         143.0778  143.7073  161.8659 C.ar    1  UNL1        0.0736
     10 C         143.0298  144.9429  162.7149 C.ar    1  UNL1        0.0071
     11 C         143.6397  144.9354  164.0853 C.ar    1  UNL1        0.0117
     12 C         144.2975  143.6922  164.6066 C.ar    1  UNL1        0.0607
     13 CL        144.9074  143.6847  165.9771 Cl      1  UNL1       -0.0821
     14 C         144.3455  142.4566  163.7576 C.ar    1  UNL1        0.0490
     15 C         143.7357  142.4641  162.3872 C.ar    1  UNL1        0.1494
     16 O         143.7836  141.2284  161.5381 O.2     1  UNL1       -0.4487
     17 C         142.5954  138.7488  157.1297 C.3     1  UNL1        0.0747
     18 C         141.5108  137.7188  157.2424 C.3     1  UNL1        0.0369
     19 C         141.5587  136.4833  156.3933 C.3     1  UNL1        0.0741
     20 N         142.6913  136.2776  155.4314 N.3     1  UNL1       -0.2688
     21 C         143.7759  137.3076  155.3188 C.3     1  UNL1        0.0741
     22 C         143.7279  138.5433  156.1680 C.3     1  UNL1        0.0369
     23 C         142.7392  135.0421  154.5824 C.3     1  UNL1        0.0992
     24 C         142.8359  133.6916  155.2280 C.ar    1  UNL1       -0.0029
     25 C         141.8688  132.6089  154.8507 C.ar    1  UNL1        0.0004
     26 C         141.9655  131.2584  155.4964 C.ar    1  UNL1        0.0399
     27 C         143.0294  130.9907  156.5194 C.ar    1  UNL1        0.1764
     28 C         143.9965  132.0734  156.8967 C.ar    1  UNL1        0.1762
     29 C         143.8998  133.4238  156.2510 C.ar    1  UNL1        0.0373
     30 O         144.9327  131.5194  157.9296 O.3     1  UNL1       -0.4346
     31 C         144.5441  130.0943  158.1906 C.3     1  UNL1        0.4294
     32 O         143.3678  129.7676  157.3190 O.3     1  UNL1       -0.4346
@<TRIPOS>BOND
     1     1     2    2
     2     2     3   am
     3     3    17    1
     4    17    18    1
     5    18    19    1
     6    19    20    1
     7    20    23    1
     8    23    24    1
     9    24    25   ar
    10    25    26   ar
    11    26    27   ar
    12    27    28   ar
    13    28    29   ar
    14    28    30    1
    15    30    31    1
    16    31    32    1
    17    20    21    1
    18    21    22    1
    19     2     5    1
    20     5     6   ar
    21     6     7   ar
    22     7     8    2
    23     7     9   ar
    24     9    10   ar
    25    10    11   ar
    26    11    12   ar
    27    12    13    1
    28    12    14   ar
    29    14    15   ar
    30    15    16   ar
    31    22    17    1
    32    16     5   ar
    33    29    24   ar
    34    15     9   ar
    35    32    27    1
    36     3     4    1
@<TRIPOS>MOLECULE
*****
 32 36 0 0 0
SMALL
GASTEIGER

@<TRIPOS>ATOM
      1 O         143.1627  143.6043  160.4763 O.2     1  UNL1       -0.2668
      2 C         142.0226  143.6015  161.4510 C.2     1  UNL1        0.2806
      3 N         140.6440  143.9761  160.9939 N.am    1  UNL1       -0.2999
      4 H         139.8957  143.9742  161.6337 H       1  UNL1        0.1498
      5 C         142.2612  143.2241  162.8831 C.ar    1  UNL1        0.2014
      6 C         143.4965  143.7002  163.5883 C.ar    1  UNL1        0.0843
      7 C         143.7351  143.3228  165.0203 C.ar    1  UNL1        0.2018
      8 O         144.9705  143.7989  165.7255 O.2     1  UNL1       -0.2864
      9 C         142.7384  142.4694  165.7472 C.ar    1  UNL1        0.0736
     10 C         142.9770  142.0921  167.1792 C.ar    1  UNL1        0.0071
     11 C         141.9803  141.2387  167.9059 C.ar    1  UNL1        0.0117
     12 C         140.7449  140.7626  167.2007 C.ar    1  UNL1        0.0607
     13 CL        139.7482  139.9092  167.9275 Cl      1  UNL1       -0.0821
     14 C         140.5063  141.1400  165.7687 C.ar    1  UNL1        0.0490
     15 C         141.5031  141.9934  165.0419 C.ar    1  UNL1        0.1494
     16 O         141.2645  142.3708  163.6099 O.2     1  UNL1       -0.4487
     17 C         140.4053  144.3535  159.5619 C.3     1  UNL1        0.0747
     18 C         139.6594  143.4205  158.6547 C.3     1  UNL1        0.0369
     19 C         139.4207  143.7978  157.2227 C.3     1  UNL1        0.0741
     20 N         139.9281  145.1083  156.6979 N.3     1  UNL1       -0.2688
     21 C         140.6741  146.0413  157.6051 C.3     1  UNL1        0.0741
     22 C         140.9127  145.6638  159.0371 C.3     1  UNL1        0.0369
     23 C         139.6895  145.4856  155.2659 C.3     1  UNL1        0.0992
     24 C         139.6831  146.9302  154.8620 C.ar    1  UNL1       -0.0029
     25 C         140.5159  147.3883  153.7016 C.ar    1  UNL1        0.0004
     26 C         140.5095  148.8329  153.2978 C.ar    1  UNL1        0.0399
     27 C         139.6703  149.8194  154.0543 C.ar    1  UNL1        0.1764
     28 C         138.8375  149.3614  155.2147 C.ar    1  UNL1        0.1762
     29 C         138.8439  147.9168  155.6186 C.ar    1  UNL1        0.0373
     30 O         138.1157  150.5548  155.7671 O.3     1  UNL1       -0.4346
     31 C         138.5025  151.7504  154.9480 C.3     1  UNL1        0.4294
     32 O         139.4633  151.2959  153.8894 O.3     1  UNL1       -0.4346
@<TRIPOS>BOND
     1     1     2    2
     2     2     3   am
     3     3    17    1
     4    17    18    1
     5    18    19    1
     6    19    20    1
     7    20    23    1
     8    23    24    1
     9    24    25   ar
    10    25    26   ar
    11    26    27   ar
    12    27    28   ar
    13    28    29   ar
    14    28    30    1
    15    30    31    1
    16    31    32    1
    17    20    21    1
    18    21    22    1
    19     2     5    1
    20     5     6   ar
    21     6     7   ar
    22     7     8    2
    23     7     9   ar
    24     9    10   ar
    25    10    11   ar
    26    11    12   ar
    27    12    13    1
    28    12    14   ar
    29    14    15   ar
    30    15    16   ar
    31    22    17    1
    32    16     5   ar
    33    29    24   ar
    34    15     9   ar
    35    32    27    1
    36     3     4    1
@<TRIPOS>MOLECULE
*****
 32 36 0 0 0
SMALL
GASTEIGER

@<TRIPOS>ATOM
      1 O         139.7813  140.9998  160.2614 O.2     1  UNL1       -0.2668
      2 C         138.5988  140.2425  159.7341 C.2     1  UNL1        0.2806
      3 N         137.7231  139.4692  160.6749 N.am    1  UNL1       -0.2999
      4 H         136.9470  138.9722  160.3287 H       1  UNL1        0.1498
      5 C         138.2920  140.2584  158.2658 C.ar    1  UNL1        0.2014
      6 C         139.3574  139.8984  157.2731 C.ar    1  UNL1        0.0843
      7 C         139.0506  139.9143  155.8049 C.ar    1  UNL1        0.2018
      8 O         140.1160  139.5542  154.8122 O.2     1  UNL1       -0.2864
      9 C         137.6785  140.2902  155.3294 C.ar    1  UNL1        0.0736
     10 C         137.3718  140.3061  153.8612 C.ar    1  UNL1        0.0071
     11 C         135.9998  140.6820  153.3857 C.ar    1  UNL1        0.0117
     12 C         134.9344  141.0420  154.3784 C.ar    1  UNL1        0.0607
     13 CL        133.5623  141.4179  153.9028 Cl      1  UNL1       -0.0821
     14 C         135.2412  141.0261  155.8466 C.ar    1  UNL1        0.0490
     15 C         136.6132  140.6502  156.3221 C.ar    1  UNL1        0.1494
     16 O         136.9200  140.6343  157.7903 O.2     1  UNL1       -0.4487
     17 C         138.0298  139.4533  162.1431 C.3     1  UNL1        0.0747
     18 C         138.6546  138.2400  162.7656 C.3     1  UNL1        0.0369
     19 C         138.9613  138.2241  164.2338 C.3     1  UNL1        0.0741
     20 N         138.6433  139.4215  165.0795 N.3     1  UNL1       -0.2688
     21 C         138.0184  140.6348  164.4570 C.3     1  UNL1        0.0741
     22 C         137.7117  140.6507  162.9887 C.3     1  UNL1        0.0369
     23 C         138.9500  139.4056  166.5477 C.3     1  UNL1        0.0992
     24 C         140.0958  140.2120  167.0834 C.ar    1  UNL1       -0.0029
     25 C         141.3182  140.4291  166.2417 C.ar    1  UNL1        0.0004
     26 C         142.4640  141.2355  166.7774 C.ar    1  UNL1        0.0399
     27 C         142.3874  141.8247  168.1546 C.ar    1  UNL1        0.1764
     28 C         141.1649  141.6076  168.9962 C.ar    1  UNL1        0.1762
     29 C         140.0191  140.8012  168.4606 C.ar    1  UNL1        0.0373
     30 O         141.3742  142.3068  170.3067 O.3     1  UNL1       -0.4346
     31 C         142.7260  142.9561  170.2750 C.3     1  UNL1        0.4294
     32 O         143.3522  142.6581  168.9449 O.3     1  UNL1       -0.4346
@<TRIPOS>BOND
     1     1     2    2
     2     2     3   am
     3     3    17    1
     4    17    18    1
     5    18    19    1
     6    19    20    1
     7    20    23    1
     8    23    24    1
     9    24    25   ar
    10    25    26   ar
    11    26    27   ar
    12    27    28   ar
    13    28    29   ar
    14    28    30    1
    15    30    31    1
    16    31    32    1
    17    20    21    1
    18    21    22    1
    19     2     5    1
    20     5     6   ar
    21     6     7   ar
    22     7     8    2
    23     7     9   ar
    24     9    10   ar
    25    10    11   ar
    26    11    12   ar
    27    12    13    1
    28    12    14   ar
    29    14    15   ar
    30    15    16   ar
    31    22    17    1
    32    16     5   ar
    33    29    24   ar
    34    15     9   ar
    35    32    27    1
    36     3     4    1
@<TRIPOS>MOLECULE
*****
 32 36 0 0 0
SMALL
GASTEIGER

@<TRIPOS>ATOM
      1 O         143.0231  138.5973  162.8092 O.2     1  UNL1       -0.2668
      2 C         142.1534  139.7987  163.0331 C.2     1  UNL1        0.2806
      3 N         141.3557  140.3692  161.8981 N.am    1  UNL1       -0.2999
      4 H         140.7849  141.1577  162.0451 H       1  UNL1        0.1498
      5 C         142.0812  140.4296  164.3921 C.ar    1  UNL1        0.2014
      6 C         143.0709  141.4875  164.7813 C.ar    1  UNL1        0.0843
      7 C         142.9989  142.1184  166.1402 C.ar    1  UNL1        0.2018
      8 O         143.9886  143.1762  166.5295 O.2     1  UNL1       -0.2864
      9 C         141.9370  141.6915  167.1100 C.ar    1  UNL1        0.0736
     10 C         141.8650  142.3225  168.4689 C.ar    1  UNL1        0.0071
     11 C         140.8032  141.8956  169.4386 C.ar    1  UNL1        0.0117
     12 C         139.8135  140.8377  169.0494 C.ar    1  UNL1        0.0607
     13 CL        138.7517  140.4109  170.0192 Cl      1  UNL1       -0.0821
     14 C         139.8856  140.2068  167.6905 C.ar    1  UNL1        0.0490
     15 C         140.9473  140.6337  166.7208 C.ar    1  UNL1        0.1494
     16 O         141.0195  140.0027  165.3618 O.2     1  UNL1       -0.4487
     17 C         141.4278  139.7383  160.5392 C.3     1  UNL1        0.0747
     18 C         140.2352  139.0191  159.9819 C.3     1  UNL1        0.0369
     19 C         140.3073  138.3882  158.6230 C.3     1  UNL1        0.0741
     20 N         141.5720  138.4765  157.8212 N.3     1  UNL1       -0.2688
     21 C         142.7646  139.1957  158.3785 C.3     1  UNL1        0.0741
     22 C         142.6925  139.8266  159.7375 C.3     1  UNL1        0.0369
     23 C         141.6441  137.8457  156.4623 C.3     1  UNL1        0.0992
     24 C         141.9177  136.3767  156.3309 C.ar    1  UNL1       -0.0029
     25 C         141.1296  135.5511  155.3577 C.ar    1  UNL1        0.0004
     26 C         141.4032  134.0821  155.2263 C.ar    1  UNL1        0.0399
     27 C         142.4650  133.4388  156.0682 C.ar    1  UNL1        0.1764
     28 C         143.2532  134.2644  157.0413 C.ar    1  UNL1        0.1762
     29 C         142.9795  135.7333  157.1727 C.ar    1  UNL1        0.0373
     30 O         144.2300  133.3596  157.7322 O.3     1  UNL1       -0.4346
     31 C         144.0456  131.9749  157.1860 C.3     1  UNL1        0.4294
     32 O         142.9548  132.0238  156.1575 O.3     1  UNL1       -0.4346
@<TRIPOS>BOND
     1     1     2    2
     2     2     3   am
     3     3    17    1
     4    17    18    1
     5    18    19    1
     6    19    20    1
     7    20    23    1
     8    23    24    1
     9    24    25   ar
    10    25    26   ar
    11    26    27   ar
    12    27    28   ar
    13    28    29   ar
    14    28    30    1
    15    30    31    1
    16    31    32    1
    17    20    21    1
    18    21    22    1
    19     2     5    1
    20     5     6   ar
    21     6     7   ar
    22     7     8    2
    23     7     9   ar
    24     9    10   ar
    25    10    11   ar
    26    11    12   ar
    27    12    13    1
    28    12    14   ar
    29    14    15   ar
    30    15    16   ar
    31    22    17    1
    32    16     5   ar
    33    29    24   ar
    34    15     9   ar
    35    32    27    1
    36     3     4    1
@<TRIPOS>MOLECULE
*****
 32 36 0 0 0
SMALL
GASTEIGER

@<TRIPOS>ATOM
      1 O         141.2932  141.2727  161.2756 O.2     1  UNL1       -0.2668
      2 C         140.2112  141.8806  162.1181 C.2     1  UNL1        0.2806
      3 N         139.3177  142.9389  161.5423 N.am    1  UNL1       -0.2999
      4 H         138.6075  143.3378  162.0952 H       1  UNL1        0.1498
      5 C         140.0227  141.4301  163.5364 C.ar    1  UNL1        0.2014
      6 C         139.4442  140.0760  163.8226 C.ar    1  UNL1        0.0843
      7 C         139.2557  139.6255  165.2409 C.ar    1  UNL1        0.2018
      8 O         138.6773  138.2715  165.5271 O.2     1  UNL1       -0.2864
      9 C         139.6457  140.5291  166.3730 C.ar    1  UNL1        0.0736
     10 C         139.4571  140.0786  167.7912 C.ar    1  UNL1        0.0071
     11 C         139.8471  140.9821  168.9232 C.ar    1  UNL1        0.0117
     12 C         140.4255  142.3362  168.6370 C.ar    1  UNL1        0.0607
     13 CL        140.8155  143.2398  169.7691 Cl      1  UNL1       -0.0821
     14 C         140.6140  142.7867  167.2188 C.ar    1  UNL1        0.0490
     15 C         140.2241  141.8831  166.0868 C.ar    1  UNL1        0.1494
     16 O         140.4126  142.3336  164.6684 O.2     1  UNL1       -0.4487
     17 C         139.5061  143.3894  160.1240 C.3     1  UNL1        0.0747
     18 C         138.8045  142.6713  159.0095 C.3     1  UNL1        0.0369
     19 C         138.9930  143.1218  157.5912 C.3     1  UNL1        0.0741
     20 N         139.8831  144.2904  157.2874 N.3     1  UNL1       -0.2688
     21 C         140.5847  145.0085  158.4020 C.3     1  UNL1        0.0741
     22 C         140.3962  144.5579  159.8203 C.3     1  UNL1        0.0369
     23 C         140.0715  144.7409  155.8692 C.3     1  UNL1        0.0992
     24 C         139.8833  146.1849  155.5096 C.ar    1  UNL1       -0.0029
     25 C         140.4383  146.7155  154.2210 C.ar    1  UNL1        0.0004
     26 C         140.2500  148.1596  153.8615 C.ar    1  UNL1        0.0399
     27 C         139.5068  149.0730  154.7905 C.ar    1  UNL1        0.1764
     28 C         138.9518  148.5425  156.0791 C.ar    1  UNL1        0.1762
     29 C         139.1401  147.0984  156.4386 C.ar    1  UNL1        0.0373
     30 O         138.2688  149.6731  156.7900 O.3     1  UNL1       -0.4346
     31 C         138.4017  150.9023  155.9408 C.3     1  UNL1        0.4294
     32 O         139.1668  150.5315  154.7050 O.3     1  UNL1       -0.4346
@<TRIPOS>BOND
     1     1     2    2
     2     2     3   am
     3     3    17    1
     4    17    18    1
     5    18    19    1
     6    19    20    1
     7    20    23    1
     8    23    24    1
     9    24    25   ar
    10    25    26   ar
    11    26    27   ar
    12    27    28   ar
    13    28    29   ar
    14    28    30    1
    15    30    31    1
    16    31    32    1
    17    20    21    1
    18    21    22    1
    19     2     5    1
    20     5     6   ar
    21     6     7   ar
    22     7     8    2
    23     7     9   ar
    24     9    10   ar
    25    10    11   ar
    26    11    12   ar
    27    12    13    1
    28    12    14   ar
    29    14    15   ar
    30    15    16   ar
    31    22    17    1
    32    16     5   ar
    33    29    24   ar
    34    15     9   ar
    35    32    27    1
    36     3     4    1
@<TRIPOS>MOLECULE
*****
 32 36 0 0 0
SMALL
GASTEIGER

@<TRIPOS>ATOM
      1 O         143.2568  140.9423  163.5098 O.2     1  UNL1       -0.2668
      2 C         142.3588  140.0551  164.3201 C.2     1  UNL1        0.2806
      3 N         141.5878  138.9562  163.6508 N.am    1  UNL1       -0.2999
      4 H         140.9984  138.3740  164.1826 H       1  UNL1        0.1498
      5 C         142.2318  140.2669  165.7997 C.ar    1  UNL1        0.2014
      6 C         142.7675  139.2402  166.7530 C.ar    1  UNL1        0.0843
      7 C         142.6405  139.4519  168.2325 C.ar    1  UNL1        0.2018
      8 O         143.1762  138.4251  169.1858 O.2     1  UNL1       -0.2864
      9 C         141.9777  140.6904  168.7587 C.ar    1  UNL1        0.0736
     10 C         141.8507  140.9021  170.2383 C.ar    1  UNL1        0.0071
     11 C         141.1880  142.1406  170.7645 C.ar    1  UNL1        0.0117
     12 C         140.6523  143.1673  169.8112 C.ar    1  UNL1        0.0607
     13 CL        139.9895  144.4059  170.3375 Cl      1  UNL1       -0.0821
     14 C         140.7793  142.9556  168.3317 C.ar    1  UNL1        0.0490
     15 C         141.4420  141.7172  167.8054 C.ar    1  UNL1        0.1494
     16 O         141.5690  141.5054  166.3259 O.2     1  UNL1       -0.4487
     17 C         141.7148  138.7444  162.1713 C.3     1  UNL1        0.0747
     18 C         142.8521  137.9335  161.6246 C.3     1  UNL1        0.0369
     19 C         142.9791  137.7217  160.1451 C.3     1  UNL1        0.0741
     20 N         141.9687  138.3209  159.2122 N.3     1  UNL1       -0.2688
     21 C         140.8314  139.1318  159.7589 C.3     1  UNL1        0.0741
     22 C         140.7044  139.3436  161.2385 C.3     1  UNL1        0.0369
     23 C         142.0957  138.1091  157.7327 C.3     1  UNL1        0.0992
     24 C         143.2204  138.7522  156.9768 C.ar    1  UNL1       -0.0029
     25 C         143.7545  138.1057  155.7331 C.ar    1  UNL1        0.0004
     26 C         144.8792  138.7488  154.9772 C.ar    1  UNL1        0.0399
     27 C         145.4699  140.0384  155.4650 C.ar    1  UNL1        0.1764
     28 C         144.9358  140.6849  156.7087 C.ar    1  UNL1        0.1762
     29 C         143.8111  140.0418  157.4646 C.ar    1  UNL1        0.0373
     30 O         145.7128  141.9460  156.9458 O.3     1  UNL1       -0.4346
     31 C         146.7269  142.0788  155.8487 C.3     1  UNL1        0.4294
     32 O         146.5768  140.8999  154.9335 O.3     1  UNL1       -0.4346
@<TRIPOS>BOND
     1     1     2    2
     2     2     3   am
     3     3    17    1
     4    17    18    1
     5    18    19    1
     6    19    20    1
     7    20    23    1
     8    23    24    1
     9    24    25   ar
    10    25    26   ar
    11    26    27   ar
    12    27    28   ar
    13    28    29   ar
    14    28    30    1
    15    30    31    1
    16    31    32    1
    17    20    21    1
    18    21    22    1
    19     2     5    1
    20     5     6   ar
    21     6     7   ar
    22     7     8    2
    23     7     9   ar
    24     9    10   ar
    25    10    11   ar
    26    11    12   ar
    27    12    13    1
    28    12    14   ar
    29    14    15   ar
    30    15    16   ar
    31    22    17    1
    32    16     5   ar
    33    29    24   ar
    34    15     9   ar
    35    32    27    1
    36     3     4    1
