@<TRIPOS>MOLECULE
*****
 32 37 0 0 0
SMALL
GASTEIGER

@<TRIPOS>ATOM
      1 C         141.3472  140.5322  167.5151 C.3     1  UNL1        0.0013
      2 C         140.5542  139.8577  166.4351 C.3     1  UNL1        0.0135
      3 C         141.9290  140.2804  166.0092 C.3     1  UNL1        0.0016
      4 C         142.3948  140.0153  164.6082 C.3     1  UNL1        0.0044
      5 C         141.4859  139.3275  163.6331 C.3     1  UNL1        0.0220
      6 C         141.9517  139.0625  162.2321 C.ar    1  UNL1       -0.0263
      7 C         143.3264  139.4852  161.8062 C.ar    1  UNL1       -0.0015
      8 C         143.7922  139.2202  160.4053 C.ar    1  UNL1        0.0366
      9 C         142.8833  138.5324  159.4302 C.ar    1  UNL1        0.1382
     10 C         141.5086  138.1096  159.8561 C.ar    1  UNL1        0.0323
     11 C         141.0428  138.3747  161.2570 C.ar    1  UNL1       -0.0231
     12 C         139.6680  137.9520  161.6830 C.3     1  UNL1        0.0261
     13 C         139.2022  138.2170  163.0839 C.3     1  UNL1        0.0050
     14 C         140.1112  138.9048  164.0590 C.3     1  UNL1        0.0044
     15 C         139.6453  139.1699  165.4601 C.3     1  UNL1        0.0016
     16 C         138.3539  138.8708  166.1618 C.3     1  UNL1        0.0014
     17 C         138.4646  139.3737  167.5707 C.3     1  UNL1        0.0160
     18 C         139.8245  139.9836  167.7395 C.3     1  UNL1        0.0574
     19 N         140.3606  140.6096  168.9929 N.3     1  UNL1       -0.2740
     20 C         141.0768  139.8935  170.0993 C.3     1  UNL1        0.0721
     21 C         141.4334  140.9029  171.1501 C.3     1  UNL1        0.0188
     22 C         140.9375  142.2426  170.6930 C.3     1  UNL1        0.0188
     23 C         140.2745  142.0614  169.3598 C.3     1  UNL1        0.0721
     24 O         143.3491  138.2673  158.0292 O.3     1  UNL1       -0.4754
     25 C         142.6320  137.2618  157.1780 C.3     1  UNL1        0.2068
     26 C         143.4067  136.1903  156.4694 C.3     1  UNL1        0.0646
     27 C         142.8502  134.8006  156.3747 C.3     1  UNL1        0.0759
     28 N         143.7316  133.6192  156.6525 N.3     1  UNL1       -0.2726
     29 C         144.0517  132.5126  155.6917 C.3     1  UNL1        0.0721
     30 C         144.9657  131.5464  156.3853 C.3     1  UNL1        0.0188
     31 C         145.2105  132.0559  157.7748 C.3     1  UNL1        0.0188
     32 C         144.4478  133.3369  157.9399 C.3     1  UNL1        0.0721
@<TRIPOS>BOND
     1     2     1    1
     2     2     3    1
     3     3     4    1
     4     5     4    1
     5     5     6    1
     6     6     7   ar
     7     7     8   ar
     8     8     9   ar
     9     9    24    1
    10    24    25    1
    11    25    26    1
    12    26    27    1
    13    27    28    1
    14    28    29    1
    15    29    30    1
    16    30    31    1
    17    31    32    1
    18     9    10   ar
    19    10    11   ar
    20    11    12    1
    21    12    13    1
    22    14    13    1
    23    14    15    1
    24    15    16    1
    25    16    17    1
    26    17    18    1
    27    18    19    1
    28    19    20    1
    29    20    21    1
    30    21    22    1
    31    22    23    1
    32    15     2    1
    33    23    19    1
    34    18     2    1
    35    14     5    1
    36    11     6   ar
    37    32    28    1
@<TRIPOS>MOLECULE
*****
 32 37 0 0 0
SMALL
GASTEIGER

@<TRIPOS>ATOM
      1 C         141.1639  140.4789  167.6276 C.3     1  UNL1        0.0013
      2 C         140.4172  139.8134  166.5098 C.3     1  UNL1        0.0135
      3 C         141.7914  140.2812  166.1320 C.3     1  UNL1        0.0016
      4 C         142.3006  140.0645  164.7378 C.3     1  UNL1        0.0044
      5 C         141.4355  139.3800  163.7214 C.3     1  UNL1        0.0220
      6 C         141.9447  139.1634  162.3271 C.ar    1  UNL1       -0.0263
      7 C         143.3189  139.6312  161.9494 C.ar    1  UNL1       -0.0015
      8 C         143.8281  139.4145  160.5552 C.ar    1  UNL1        0.0366
      9 C         142.9630  138.7300  159.5388 C.ar    1  UNL1        0.1382
     10 C         141.5888  138.2623  159.9165 C.ar    1  UNL1        0.0323
     11 C         141.0797  138.4789  161.3107 C.ar    1  UNL1       -0.0231
     12 C         139.7054  138.0112  161.6884 C.3     1  UNL1        0.0261
     13 C         139.1962  138.2278  163.0826 C.3     1  UNL1        0.0050
     14 C         140.0613  138.9123  164.0991 C.3     1  UNL1        0.0044
     15 C         139.5521  139.1289  165.4933 C.3     1  UNL1        0.0016
     16 C         138.2507  138.7796  166.1522 C.3     1  UNL1        0.0014
     17 C         138.3114  139.2481  167.5758 C.3     1  UNL1        0.0160
     18 C         139.6504  139.8870  167.7968 C.3     1  UNL1        0.0574
     19 N         140.1370  140.4931  169.0797 N.3     1  UNL1       -0.2740
     20 C         140.9142  139.7857  170.1499 C.3     1  UNL1        0.0721
     21 C         141.1895  140.7684  171.2493 C.3     1  UNL1        0.0188
     22 C         140.5824  142.0831  170.8585 C.3     1  UNL1        0.0188
     23 C         139.9320  141.9130  169.5176 C.3     1  UNL1        0.0721
     24 O         143.4722  138.5134  158.1445 O.3     1  UNL1       -0.4754
     25 C         143.0168  139.4104  157.0319 C.3     1  UNL1        0.2068
     26 C         142.7417  140.8601  157.3021 C.3     1  UNL1        0.0646
     27 C         141.3301  141.3352  157.4796 C.3     1  UNL1        0.0759
     28 N         140.7949  141.5983  158.8559 N.3     1  UNL1       -0.2726
     29 C         141.5274  142.2848  159.9705 C.3     1  UNL1        0.0721
     30 C         140.6184  142.3319  161.1627 C.3     1  UNL1        0.0188
     31 C         139.3240  141.6746  160.7850 C.3     1  UNL1        0.0188
     32 C         139.4332  141.2212  159.3593 C.3     1  UNL1        0.0721
@<TRIPOS>BOND
     1     2     1    1
     2     2     3    1
     3     3     4    1
     4     5     4    1
     5     5     6    1
     6     6     7   ar
     7     7     8   ar
     8     8     9   ar
     9     9    24    1
    10    24    25    1
    11    25    26    1
    12    26    27    1
    13    27    28    1
    14    28    29    1
    15    29    30    1
    16    30    31    1
    17    31    32    1
    18     9    10   ar
    19    10    11   ar
    20    11    12    1
    21    12    13    1
    22    14    13    1
    23    14    15    1
    24    15    16    1
    25    16    17    1
    26    17    18    1
    27    18    19    1
    28    19    20    1
    29    20    21    1
    30    21    22    1
    31    22    23    1
    32    15     2    1
    33    23    19    1
    34    18     2    1
    35    14     5    1
    36    11     6   ar
    37    32    28    1
@<TRIPOS>MOLECULE
*****
 32 37 0 0 0
SMALL
GASTEIGER

@<TRIPOS>ATOM
      1 C         141.1296  142.1347  167.1565 C.3     1  UNL1        0.0013
      2 C         140.3444  141.0388  166.4989 C.3     1  UNL1        0.0135
      3 C         141.0599  141.9392  165.5359 C.3     1  UNL1        0.0016
      4 C         140.9493  141.6978  164.0596 C.3     1  UNL1        0.0044
      5 C         140.1231  140.5559  163.5463 C.3     1  UNL1        0.0220
      6 C         140.0124  140.3145  162.0699 C.ar    1  UNL1       -0.0263
      7 C         140.7279  141.2149  161.1070 C.ar    1  UNL1       -0.0015
      8 C         140.6172  140.9735  159.6307 C.ar    1  UNL1        0.0366
      9 C         139.7910  139.8316  159.1174 C.ar    1  UNL1        0.1382
     10 C         139.0756  138.9312  160.0803 C.ar    1  UNL1        0.0323
     11 C         139.1862  139.1726  161.5565 C.ar    1  UNL1       -0.0231
     12 C         138.4707  138.2721  162.5195 C.3     1  UNL1        0.0261
     13 C         138.5814  138.5136  163.9958 C.3     1  UNL1        0.0050
     14 C         139.4076  139.6555  164.5092 C.3     1  UNL1        0.0044
     15 C         139.5183  139.8969  165.9855 C.3     1  UNL1        0.0016
     16 C         138.9309  139.1822  167.1662 C.3     1  UNL1        0.0014
     17 C         139.3940  139.8823  168.4093 C.3     1  UNL1        0.0160
     18 C         140.2676  141.0298  167.9968 C.3     1  UNL1        0.0574
     19 N         140.9455  141.9982  168.9203 N.3     1  UNL1       -0.2740
     20 C         140.3501  143.2639  169.4619 C.3     1  UNL1        0.0721
     21 C         141.3743  143.9190  170.3407 C.3     1  UNL1        0.0188
     22 C         142.6025  143.0580  170.3420 C.3     1  UNL1        0.0188
     23 C         142.3375  141.8709  169.4642 C.3     1  UNL1        0.0721
     24 O         139.6804  139.5902  157.6410 O.3     1  UNL1       -0.4754
     25 C         140.7776  138.8704  156.9144 C.3     1  UNL1        0.2068
     26 C         141.6765  137.9272  157.6578 C.3     1  UNL1        0.0646
     27 C         142.9750  138.4190  158.2250 C.3     1  UNL1        0.0759
     28 N         143.1559  138.5147  159.7110 N.3     1  UNL1       -0.2726
     29 C         142.5085  137.6322  160.7367 C.3     1  UNL1        0.0721
     30 C         142.9684  138.0818  162.0918 C.3     1  UNL1        0.0188
     31 C         143.9002  139.2422  161.9035 C.3     1  UNL1        0.0188
     32 C         144.0161  139.5097  160.4321 C.3     1  UNL1        0.0721
@<TRIPOS>BOND
     1     2     1    1
     2     2     3    1
     3     3     4    1
     4     5     4    1
     5     5     6    1
     6     6     7   ar
     7     7     8   ar
     8     8     9   ar
     9     9    24    1
    10    24    25    1
    11    25    26    1
    12    26    27    1
    13    27    28    1
    14    28    29    1
    15    29    30    1
    16    30    31    1
    17    31    32    1
    18     9    10   ar
    19    10    11   ar
    20    11    12    1
    21    12    13    1
    22    14    13    1
    23    14    15    1
    24    15    16    1
    25    16    17    1
    26    17    18    1
    27    18    19    1
    28    19    20    1
    29    20    21    1
    30    21    22    1
    31    22    23    1
    32    15     2    1
    33    23    19    1
    34    18     2    1
    35    14     5    1
    36    11     6   ar
    37    32    28    1
@<TRIPOS>MOLECULE
*****
 32 37 0 0 0
SMALL
GASTEIGER

@<TRIPOS>ATOM
      1 C         140.5245  141.3902  167.4802 C.3     1  UNL1        0.0013
      2 C         139.7729  141.0716  166.2219 C.3     1  UNL1        0.0135
      3 C         140.6823  142.2588  166.1054 C.3     1  UNL1        0.0016
      4 C         140.7752  143.0082  164.8094 C.3     1  UNL1        0.0044
      5 C         139.9586  142.5704  163.6297 C.3     1  UNL1        0.0220
      6 C         140.0515  143.3199  162.3336 C.ar    1  UNL1       -0.0263
      7 C         140.9608  144.5070  162.2173 C.ar    1  UNL1       -0.0015
      8 C         141.0537  145.2564  160.9212 C.ar    1  UNL1        0.0366
      9 C         140.2371  144.8186  159.7416 C.ar    1  UNL1        0.1382
     10 C         139.3278  143.6315  159.8579 C.ar    1  UNL1        0.0323
     11 C         139.2349  142.8821  161.1540 C.ar    1  UNL1       -0.0231
     12 C         138.3255  141.6948  161.2704 C.3     1  UNL1        0.0261
     13 C         138.2327  140.9454  162.5665 C.3     1  UNL1        0.0050
     14 C         139.0492  141.3832  163.7461 C.3     1  UNL1        0.0044
     15 C         138.9564  140.6338  165.0422 C.3     1  UNL1        0.0016
     16 C         138.1538  139.4352  165.4532 C.3     1  UNL1        0.0014
     17 C         138.4742  139.1321  166.8869 C.3     1  UNL1        0.0160
     18 C         139.4749  140.1435  167.3619 C.3     1  UNL1        0.0574
     19 N         140.0727  140.2143  168.7359 N.3     1  UNL1       -0.2740
     20 C         139.3967  140.7455  169.9651 C.3     1  UNL1        0.0721
     21 C         140.3576  140.6259  171.1108 C.3     1  UNL1        0.0188
     22 C         141.6272  140.0208  170.5896 C.3     1  UNL1        0.0188
     23 C         141.4512  139.7665  169.1218 C.3     1  UNL1        0.0721
     24 O         140.3300  145.5681  158.4455 O.3     1  UNL1       -0.4754
     25 C         141.5588  145.4448  157.5942 C.3     1  UNL1        0.2068
     26 C         142.1512  144.0935  157.3235 C.3     1  UNL1        0.0646
     27 C         143.3495  143.6310  158.0982 C.3     1  UNL1        0.0759
     28 N         143.1726  142.7396  159.2915 N.3     1  UNL1       -0.2726
     29 C         143.8750  142.8808  160.6094 C.3     1  UNL1        0.0721
     30 C         143.3988  141.7790  161.5089 C.3     1  UNL1        0.0188
     31 C         142.4020  140.9568  160.7469 C.3     1  UNL1        0.0188
     32 C         142.2623  141.5505  159.3766 C.3     1  UNL1        0.0721
@<TRIPOS>BOND
     1     2     1    1
     2     2     3    1
     3     3     4    1
     4     5     4    1
     5     5     6    1
     6     6     7   ar
     7     7     8   ar
     8     8     9   ar
     9     9    24    1
    10    24    25    1
    11    25    26    1
    12    26    27    1
    13    27    28    1
    14    28    29    1
    15    29    30    1
    16    30    31    1
    17    31    32    1
    18     9    10   ar
    19    10    11   ar
    20    11    12    1
    21    12    13    1
    22    14    13    1
    23    14    15    1
    24    15    16    1
    25    16    17    1
    26    17    18    1
    27    18    19    1
    28    19    20    1
    29    20    21    1
    30    21    22    1
    31    22    23    1
    32    15     2    1
    33    23    19    1
    34    18     2    1
    35    14     5    1
    36    11     6   ar
    37    32    28    1
@<TRIPOS>MOLECULE
*****
 32 37 0 0 0
SMALL
GASTEIGER

@<TRIPOS>ATOM
      1 C         139.7941  138.3993  157.8523 C.3     1  UNL1        0.0013
      2 C         139.2231  139.4663  158.7386 C.3     1  UNL1        0.0135
      3 C         139.6622  138.2340  159.4725 C.3     1  UNL1        0.0016
      4 C         139.5098  138.1541  160.9625 C.3     1  UNL1        0.0044
      5 C         138.9183  139.3066  161.7188 C.3     1  UNL1        0.0220
      6 C         138.7659  139.2267  163.2089 C.ar    1  UNL1       -0.0263
      7 C         139.2049  137.9944  163.9428 C.ar    1  UNL1       -0.0015
      8 C         139.0525  137.9145  165.4328 C.ar    1  UNL1        0.0366
      9 C         138.4611  139.0670  166.1891 C.ar    1  UNL1        0.1382
     10 C         138.0220  140.2993  165.4553 C.ar    1  UNL1        0.0323
     11 C         138.1744  140.3792  163.9652 C.ar    1  UNL1       -0.0231
     12 C         137.7353  141.6116  163.2313 C.3     1  UNL1        0.0261
     13 C         137.8878  141.6914  161.7412 C.3     1  UNL1        0.0050
     14 C         138.4792  140.5389  160.9850 C.3     1  UNL1        0.0044
     15 C         138.6316  140.6188  159.4948 C.3     1  UNL1        0.0016
     16 C         138.2915  141.6954  158.5074 C.3     1  UNL1        0.0014
     17 C         138.6727  141.2084  157.1409 C.3     1  UNL1        0.0160
     18 C         139.2485  139.8307  157.2838 C.3     1  UNL1        0.0574
     19 N         139.7599  138.9688  156.1677 N.3     1  UNL1       -0.2740
     20 C         138.9379  138.0418  155.3221 C.3     1  UNL1        0.0721
     21 C         139.8529  137.3826  154.3330 C.3     1  UNL1        0.0188
     22 C         141.2404  137.9021  154.5675 C.3     1  UNL1        0.0188
     23 C         141.1828  138.8824  155.7014 C.3     1  UNL1        0.0721
     24 O         138.3087  138.9871  167.6792 O.3     1  UNL1       -0.4754
     25 C         139.1048  139.8994  168.5645 C.3     1  UNL1        0.2068
     26 C         140.5632  140.1226  168.2937 C.3     1  UNL1        0.0646
     27 C         141.0237  141.4128  167.6826 C.3     1  UNL1        0.0759
     28 N         141.2622  141.4994  166.2043 N.3     1  UNL1       -0.2726
     29 C         140.9534  142.6778  165.3289 C.3     1  UNL1        0.0721
     30 C         141.3518  142.3296  163.9254 C.3     1  UNL1        0.0188
     31 C         141.9068  140.9360  163.9333 C.3     1  UNL1        0.0188
     32 C         141.8514  140.4230  165.3417 C.3     1  UNL1        0.0721
@<TRIPOS>BOND
     1     2     1    1
     2     2     3    1
     3     3     4    1
     4     5     4    1
     5     5     6    1
     6     6     7   ar
     7     7     8   ar
     8     8     9   ar
     9     9    24    1
    10    24    25    1
    11    25    26    1
    12    26    27    1
    13    27    28    1
    14    28    29    1
    15    29    30    1
    16    30    31    1
    17    31    32    1
    18     9    10   ar
    19    10    11   ar
    20    11    12    1
    21    12    13    1
    22    14    13    1
    23    14    15    1
    24    15    16    1
    25    16    17    1
    26    17    18    1
    27    18    19    1
    28    19    20    1
    29    20    21    1
    30    21    22    1
    31    22    23    1
    32    15     2    1
    33    23    19    1
    34    18     2    1
    35    14     5    1
    36    11     6   ar
    37    32    28    1
@<TRIPOS>MOLECULE
*****
 32 37 0 0 0
SMALL
GASTEIGER

@<TRIPOS>ATOM
      1 C         142.7103  142.2712  166.8215 C.3     1  UNL1        0.0013
      2 C         142.9085  141.1018  165.9032 C.3     1  UNL1        0.0135
      3 C         142.9434  142.4328  165.2124 C.3     1  UNL1        0.0016
      4 C         143.1623  142.5030  163.7301 C.3     1  UNL1        0.0044
      5 C         143.3462  141.2422  162.9386 C.3     1  UNL1        0.0220
      6 C         143.5651  141.3124  161.4563 C.ar    1  UNL1       -0.0263
      7 C         143.6000  142.6434  160.7655 C.ar    1  UNL1       -0.0015
      8 C         143.8189  142.7136  159.2833 C.ar    1  UNL1        0.0366
      9 C         144.0028  141.4528  158.4918 C.ar    1  UNL1        0.1382
     10 C         143.9679  140.1218  159.1825 C.ar    1  UNL1        0.0323
     11 C         143.7490  140.0516  160.6647 C.ar    1  UNL1       -0.0231
     12 C         143.7141  138.7206  161.3556 C.3     1  UNL1        0.0261
     13 C         143.4952  138.6504  162.8378 C.3     1  UNL1        0.0050
     14 C         143.3113  139.9112  163.6293 C.3     1  UNL1        0.0044
     15 C         143.0924  139.8410  165.1117 C.3     1  UNL1        0.0016
     16 C         143.0099  138.6820  166.0602 C.3     1  UNL1        0.0014
     17 C         142.7750  139.2265  167.4380 C.3     1  UNL1        0.0160
     18 C         142.7123  140.7220  167.3409 C.3     1  UNL1        0.0574
     19 N         142.4921  141.6711  168.4815 N.3     1  UNL1       -0.2740
     20 C         143.5266  142.1111  169.4745 C.3     1  UNL1        0.0721
     21 C         142.8727  143.0588  170.4360 C.3     1  UNL1        0.0188
     22 C         141.4341  143.2043  170.0371 C.3     1  UNL1        0.0188
     23 C         141.1989  142.3467  168.8292 C.3     1  UNL1        0.0721
     24 O         144.2217  141.5230  157.0094 O.3     1  UNL1       -0.4754
     25 C         143.0859  141.2461  156.0696 C.3     1  UNL1        0.2068
     26 C         141.7445  141.8736  156.3087 C.3     1  UNL1        0.0646
     27 C         140.6086  141.0415  156.8254 C.3     1  UNL1        0.0759
     28 N         140.4027  140.8885  158.3033 N.3     1  UNL1       -0.2726
     29 C         140.3463  139.5924  159.0562 C.3     1  UNL1        0.0721
     30 C         140.1258  139.9076  160.5060 C.3     1  UNL1        0.0188
     31 C         140.0458  141.3987  160.6491 C.3     1  UNL1        0.0188
     32 C         140.2169  142.0049  159.2878 C.3     1  UNL1        0.0721
@<TRIPOS>BOND
     1     2     1    1
     2     2     3    1
     3     3     4    1
     4     5     4    1
     5     5     6    1
     6     6     7   ar
     7     7     8   ar
     8     8     9   ar
     9     9    24    1
    10    24    25    1
    11    25    26    1
    12    26    27    1
    13    27    28    1
    14    28    29    1
    15    29    30    1
    16    30    31    1
    17    31    32    1
    18     9    10   ar
    19    10    11   ar
    20    11    12    1
    21    12    13    1
    22    14    13    1
    23    14    15    1
    24    15    16    1
    25    16    17    1
    26    17    18    1
    27    18    19    1
    28    19    20    1
    29    20    21    1
    30    21    22    1
    31    22    23    1
    32    15     2    1
    33    23    19    1
    34    18     2    1
    35    14     5    1
    36    11     6   ar
    37    32    28    1
@<TRIPOS>MOLECULE
*****
 32 37 0 0 0
SMALL
GASTEIGER

@<TRIPOS>ATOM
      1 C         141.2133  141.7404  167.5706 C.3     1  UNL1        0.0013
      2 C         141.8788  141.3352  166.2888 C.3     1  UNL1        0.0135
      3 C         141.0519  142.5819  166.1794 C.3     1  UNL1        0.0016
      4 C         140.9504  143.3019  164.8674 C.3     1  UNL1        0.0044
      5 C         141.6758  142.7752  163.6648 C.3     1  UNL1        0.0220
      6 C         141.5744  143.4952  162.3528 C.ar    1  UNL1       -0.0263
      7 C         140.7475  144.7419  162.2434 C.ar    1  UNL1       -0.0015
      8 C         140.6461  145.4619  160.9315 C.ar    1  UNL1        0.0366
      9 C         141.3715  144.9351  159.7288 C.ar    1  UNL1        0.1382
     10 C         142.1983  143.6884  159.8382 C.ar    1  UNL1        0.0323
     11 C         142.2998  142.9685  161.1501 C.ar    1  UNL1       -0.0231
     12 C         143.1266  141.7217  161.2595 C.3     1  UNL1        0.0261
     13 C         143.2281  141.0017  162.5715 C.3     1  UNL1        0.0050
     14 C         142.5027  141.5285  163.7741 C.3     1  UNL1        0.0044
     15 C         142.6042  140.8084  165.0861 C.3     1  UNL1        0.0016
     16 C         143.3380  139.5658  165.4949 C.3     1  UNL1        0.0014
     17 C         143.0662  139.3245  166.9502 C.3     1  UNL1        0.0160
     18 C         142.1643  140.4181  167.4408 C.3     1  UNL1        0.0574
     19 N         141.6401  140.5681  168.8382 N.3     1  UNL1       -0.2740
     20 C         142.2940  141.3377  169.9473 C.3     1  UNL1        0.0721
     21 C         141.4280  141.2201  171.1664 C.3     1  UNL1        0.0188
     22 C         140.2389  140.3779  170.8107 C.3     1  UNL1        0.0188
     23 C         140.3700  139.9749  169.3718 C.3     1  UNL1        0.0721
     24 O         141.2700  145.6552  158.4168 O.3     1  UNL1       -0.4754
     25 C         140.1696  145.3129  157.4566 C.3     1  UNL1        0.2068
     26 C         139.9080  143.8807  157.0953 C.3     1  UNL1        0.0646
     27 C         138.7603  143.1466  157.7228 C.3     1  UNL1        0.0759
     28 N         138.9986  142.2480  158.8999 N.3     1  UNL1       -0.2726
     29 C         138.4824  142.4628  160.2918 C.3     1  UNL1        0.0721
     30 C         138.9596  141.3243  161.1440 C.3     1  UNL1        0.0188
     31 C         139.7708  140.4060  160.2787 C.3     1  UNL1        0.0188
     32 C         139.7948  140.9768  158.8918 C.3     1  UNL1        0.0721
@<TRIPOS>BOND
     1     2     1    1
     2     2     3    1
     3     3     4    1
     4     5     4    1
     5     5     6    1
     6     6     7   ar
     7     7     8   ar
     8     8     9   ar
     9     9    24    1
    10    24    25    1
    11    25    26    1
    12    26    27    1
    13    27    28    1
    14    28    29    1
    15    29    30    1
    16    30    31    1
    17    31    32    1
    18     9    10   ar
    19    10    11   ar
    20    11    12    1
    21    12    13    1
    22    14    13    1
    23    14    15    1
    24    15    16    1
    25    16    17    1
    26    17    18    1
    27    18    19    1
    28    19    20    1
    29    20    21    1
    30    21    22    1
    31    22    23    1
    32    15     2    1
    33    23    19    1
    34    18     2    1
    35    14     5    1
    36    11     6   ar
    37    32    28    1
@<TRIPOS>MOLECULE
*****
 32 37 0 0 0
SMALL
GASTEIGER

@<TRIPOS>ATOM
      1 C         139.9706  140.8721  166.8104 C.3     1  UNL1        0.0013
      2 C         140.8434  140.0758  165.8862 C.3     1  UNL1        0.0135
      3 C         139.6316  140.6637  165.2257 C.3     1  UNL1        0.0016
      4 C         139.3859  140.4295  163.7647 C.3     1  UNL1        0.0044
      5 C         140.3518  139.6073  162.9640 C.3     1  UNL1        0.0220
      6 C         140.1060  139.3731  161.5029 C.ar    1  UNL1       -0.0263
      7 C         138.8943  139.9610  160.8425 C.ar    1  UNL1       -0.0015
      8 C         138.6485  139.7268  159.3815 C.ar    1  UNL1        0.0366
      9 C         139.6144  138.9046  158.5808 C.ar    1  UNL1        0.1382
     10 C         140.8261  138.3167  159.2412 C.ar    1  UNL1        0.0323
     11 C         141.0719  138.5509  160.7022 C.ar    1  UNL1       -0.0231
     12 C         142.2836  137.9630  161.3627 C.3     1  UNL1        0.0261
     13 C         142.5294  138.1973  162.8237 C.3     1  UNL1        0.0050
     14 C         141.5635  139.0194  163.6244 C.3     1  UNL1        0.0044
     15 C         141.8093  139.2536  165.0855 C.3     1  UNL1        0.0016
     16 C         142.9080  138.8054  166.0029 C.3     1  UNL1        0.0014
     17 C         142.6212  139.3505  167.3706 C.3     1  UNL1        0.0160
     18 C         141.3452  140.1356  167.2984 C.3     1  UNL1        0.0574
     19 N         140.6866  140.8545  168.4384 N.3     1  UNL1       -0.2740
     20 C         139.6361  140.2893  169.3479 C.3     1  UNL1        0.0721
     21 C         139.2631  141.3501  170.3408 C.3     1  UNL1        0.0188
     22 C         140.0831  142.5708  170.0448 C.3     1  UNL1        0.0188
     23 C         140.9628  142.2644  168.8691 C.3     1  UNL1        0.0721
     24 O         139.3686  138.6704  157.1197 O.3     1  UNL1       -0.4754
     25 C         139.5550  137.3005  156.5380 C.3     1  UNL1        0.2068
     26 C         140.7484  137.0068  155.6779 C.3     1  UNL1        0.0646
     27 C         141.9761  136.3931  156.2828 C.3     1  UNL1        0.0759
     28 N         142.1751  134.9073  156.2311 N.3     1  UNL1       -0.2726
     29 C         141.4316  133.9483  155.3493 C.3     1  UNL1        0.0721
     30 C         141.9495  132.5679  155.6253 C.3     1  UNL1        0.0188
     31 C         143.0132  132.6737  156.6777 C.3     1  UNL1        0.0188
     32 C         143.1525  134.1196  157.0521 C.3     1  UNL1        0.0721
@<TRIPOS>BOND
     1     2     1    1
     2     2     3    1
     3     3     4    1
     4     5     4    1
     5     5     6    1
     6     6     7   ar
     7     7     8   ar
     8     8     9   ar
     9     9    24    1
    10    24    25    1
    11    25    26    1
    12    26    27    1
    13    27    28    1
    14    28    29    1
    15    29    30    1
    16    30    31    1
    17    31    32    1
    18     9    10   ar
    19    10    11   ar
    20    11    12    1
    21    12    13    1
    22    14    13    1
    23    14    15    1
    24    15    16    1
    25    16    17    1
    26    17    18    1
    27    18    19    1
    28    19    20    1
    29    20    21    1
    30    21    22    1
    31    22    23    1
    32    15     2    1
    33    23    19    1
    34    18     2    1
    35    14     5    1
    36    11     6   ar
    37    32    28    1
@<TRIPOS>MOLECULE
*****
 32 37 0 0 0
SMALL
GASTEIGER

@<TRIPOS>ATOM
      1 C         140.4468  142.1126  166.9710 C.3     1  UNL1        0.0013
      2 C         141.3600  141.7906  165.8255 C.3     1  UNL1        0.0135
      3 C         140.3759  142.8841  165.5325 C.3     1  UNL1        0.0016
      4 C         140.3702  143.5472  164.1871 C.3     1  UNL1        0.0044
      5 C         141.3484  143.1169  163.1346 C.3     1  UNL1        0.0220
      6 C         141.3426  143.7800  161.7891 C.ar    1  UNL1       -0.0263
      7 C         140.3586  144.8735  161.4962 C.ar    1  UNL1       -0.0015
      8 C         140.3528  145.5366  160.1507 C.ar    1  UNL1        0.0366
      9 C         141.3311  145.1063  159.0983 C.ar    1  UNL1        0.1382
     10 C         142.3151  144.0128  159.3912 C.ar    1  UNL1        0.0323
     11 C         142.3209  143.3497  160.7366 C.ar    1  UNL1       -0.0231
     12 C         143.3050  142.2561  161.0296 C.3     1  UNL1        0.0261
     13 C         143.3108  141.5930  162.3750 C.3     1  UNL1        0.0050
     14 C         142.3325  142.0234  163.4275 C.3     1  UNL1        0.0044
     15 C         142.3383  141.3602  164.7730 C.3     1  UNL1        0.0016
     16 C         143.1841  140.2627  165.3473 C.3     1  UNL1        0.0014
     17 C         142.7286  140.0147  166.7548 C.3     1  UNL1        0.0160
     18 C         141.6012  140.9590  167.0503 C.3     1  UNL1        0.0574
     19 N         140.8475  141.0549  168.3436 N.3     1  UNL1       -0.2740
     20 C         139.6334  140.2573  168.7176 C.3     1  UNL1        0.0721
     21 C         139.2109  140.6746  170.0952 C.3     1  UNL1        0.0188
     22 C         140.1639  141.7300  170.5724 C.3     1  UNL1        0.0188
     23 C         141.1754  141.9650  169.4899 C.3     1  UNL1        0.0721
     24 O         141.3253  145.7694  157.7528 O.3     1  UNL1       -0.4754
     25 C         140.0389  146.2784  157.1731 C.3     1  UNL1        0.2068
     26 C         139.9640  146.6450  155.7204 C.3     1  UNL1        0.0646
     27 C         138.8540  147.5239  155.2249 C.3     1  UNL1        0.0759
     28 N         138.9847  149.0158  155.3080 N.3     1  UNL1       -0.2726
     29 C         138.4505  149.8880  156.4052 C.3     1  UNL1        0.0721
     30 C         138.8082  151.3088  156.0837 C.3     1  UNL1        0.0188
     31 C         139.5636  151.3147  154.7877 C.3     1  UNL1        0.0188
     32 C         139.6726  149.8976  154.3083 C.3     1  UNL1        0.0721
@<TRIPOS>BOND
     1     2     1    1
     2     2     3    1
     3     3     4    1
     4     5     4    1
     5     5     6    1
     6     6     7   ar
     7     7     8   ar
     8     8     9   ar
     9     9    24    1
    10    24    25    1
    11    25    26    1
    12    26    27    1
    13    27    28    1
    14    28    29    1
    15    29    30    1
    16    30    31    1
    17    31    32    1
    18     9    10   ar
    19    10    11   ar
    20    11    12    1
    21    12    13    1
    22    14    13    1
    23    14    15    1
    24    15    16    1
    25    16    17    1
    26    17    18    1
    27    18    19    1
    28    19    20    1
    29    20    21    1
    30    21    22    1
    31    22    23    1
    32    15     2    1
    33    23    19    1
    34    18     2    1
    35    14     5    1
    36    11     6   ar
    37    32    28    1
