@<TRIPOS>MOLECULE
*****
 45 48 0 0 0
SMALL
GASTEIGER

@<TRIPOS>ATOM
      1 C         141.3997  140.9113  162.1353 C.3     1  UNL1        0.0808
      2 C         141.4261  140.6720  163.6159 C.ar    1  UNL1        0.0375
      3 C         141.0701  141.7809  164.5613 C.ar    1  UNL1        0.0023
      4 C         141.0965  141.5417  166.0418 C.ar    1  UNL1        0.0183
      5 C         140.7404  142.6505  166.9872 C.ar    1  UNL1        0.0118
      6 C         140.7669  142.4113  168.4678 C.ar    1  UNL1        0.0685
      7 C         141.1494  141.0632  169.0030 C.ar    1  UNL1        0.0118
      8 C         141.5054  139.9544  168.0576 C.ar    1  UNL1        0.0199
      9 C         141.4790  140.1936  166.5771 C.ar    1  UNL1        0.0844
     10 N         141.8351  139.0848  165.6317 N.ar    1  UNL1       -0.2119
     11 C         141.8086  139.3240  164.1511 C.ar    1  UNL1        0.2211
     12 C         140.4108  143.5201  169.4132 C.1     1  UNL1        0.1004
     13 N         140.0547  144.6289  170.3585 N.1     1  UNL1       -0.1908
     14 O         142.1647  138.2152  163.2058 O.3     1  UNL1       -0.4563
     15 C         141.0073  137.2615  163.2325 C.3     1  UNL1        0.2542
     16 C         140.2631  140.3841  161.3106 C.ar    1  UNL1        0.0245
     17 C         138.8471  140.6538  161.7256 C.ar    1  UNL1        0.0200
     18 C         137.7105  140.1266  160.9009 C.ar    1  UNL1        0.1019
     19 N         137.9899  139.3297  159.6611 N.ar    1  UNL1       -0.2076
     20 C         139.4059  139.0601  159.2461 C.ar    1  UNL1        0.2598
     21 C         140.5425  139.5873  160.0709 C.ar    1  UNL1        0.1879
     22 O         139.6853  138.2632  158.0064 O.3     1  UNL1       -0.4541
     23 C         139.5687  138.9090  156.6576 C.3     1  UNL1        0.2543
     24 O         141.9585  139.3176  159.6559 O.3     1  UNL1       -0.4670
     25 C         142.5258  137.9345  159.7795 C.3     1  UNL1        0.2527
     26 C         142.5099  141.6777  161.4795 C.3     1  UNL1        0.1162
     27 O         143.4632  140.5617  161.7891 O.3     1  UNL1       -0.3820
     28 H         144.3455  140.7885  161.4560 H       1  UNL1        0.2107
     29 C         140.3080  144.2700  159.4347 C.ar    1  UNL1        0.2272
     30 C         141.2613  143.1541  159.7442 C.ar    1  UNL1        0.0559
     31 C         141.5566  142.7937  161.1700 C.ar    1  UNL1        0.0117
     32 C         140.8986  143.5494  162.2862 C.ar    1  UNL1        0.0560
     33 C         139.9453  144.6653  161.9767 C.ar    1  UNL1        0.2319
     34 N         139.6500  145.0257  160.5509 N.ar    1  UNL1       -0.1766
     35 C         140.2421  146.0320  157.5265 C.3     1  UNL1        0.2542
     36 O         140.0127  144.6304  158.0088 O.3     1  UNL1       -0.4561
     37 O         139.2873  145.4210  163.0930 O.3     1  UNL1       -0.4067
     38 C         138.7442  144.6827  164.2804 C.3     1  UNL1        0.5097
     39 F         138.7709  145.3216  165.6373 F       1  UNL1       -0.1549
     40 F         138.1745  143.3055  164.1109 F       1  UNL1       -0.1549
     41 C         143.6201  142.4442  160.8237 C.3     1  UNL1        0.0491
     42 C         144.8723  142.7534  161.5895 C.3     1  UNL1        0.0750
     43 N         144.8428  142.7986  163.0886 N.3     1  UNL1       -0.2702
     44 C         145.5719  141.7574  163.8848 C.3     1  UNL1        0.0897
     45 C         144.0840  143.8852  163.7913 C.3     1  UNL1        0.0897
@<TRIPOS>BOND
     1    35    36    1
     2    36    29    1
     3    29    30   ar
     4    30    31   ar
     5    31    26    1
     6    26    27    1
     7    26    41    1
     8    41    42    1
     9    42    43    1
    10    43    44    1
    11    43    45    1
    12    26     1    1
    13     1     2    1
    14     2     3   ar
    15     3     4   ar
    16     4     5   ar
    17     5     6   ar
    18     6    12    1
    19    12    13    3
    20     6     7   ar
    21     7     8   ar
    22     8     9   ar
    23     9    10   ar
    24    10    11   ar
    25    11    14    1
    26    14    15    1
    27     1    16    1
    28    16    17   ar
    29    17    18   ar
    30    18    19   ar
    31    19    20   ar
    32    20    22    1
    33    22    23    1
    34    20    21   ar
    35    21    24    1
    36    24    25    1
    37    31    32   ar
    38    32    33   ar
    39    33    37    1
    40    37    38    1
    41    38    39    1
    42    38    40    1
    43    33    34   ar
    44    34    29   ar
    45    11     2   ar
    46    21    16   ar
    47     9     4   ar
    48    27    28    1
@<TRIPOS>MOLECULE
*****
 45 48 0 0 0
SMALL
GASTEIGER

@<TRIPOS>ATOM
      1 C         141.5304  140.6879  163.2295 C.3     1  UNL1        0.0808
      2 C         141.8231  140.6275  164.6995 C.ar    1  UNL1        0.0375
      3 C         140.9759  141.4018  165.6653 C.ar    1  UNL1        0.0023
      4 C         141.2685  141.3414  167.1352 C.ar    1  UNL1        0.0183
      5 C         140.4213  142.1156  168.1011 C.ar    1  UNL1        0.0118
      6 C         140.7140  142.0552  169.5711 C.ar    1  UNL1        0.0685
      7 C         141.8539  141.2206  170.0751 C.ar    1  UNL1        0.0118
      8 C         142.7011  140.4464  169.1093 C.ar    1  UNL1        0.0199
      9 C         142.4084  140.5068  167.6394 C.ar    1  UNL1        0.0844
     10 N         143.2556  139.7325  166.6736 N.ar    1  UNL1       -0.2119
     11 C         142.9629  139.7929  165.2036 C.ar    1  UNL1        0.2211
     12 C         139.8668  142.8294  170.5369 C.1     1  UNL1        0.1004
     13 N         139.0196  143.6037  171.5027 N.1     1  UNL1       -0.1908
     14 O         143.8102  139.0187  164.2378 O.3     1  UNL1       -0.4563
     15 C         145.1416  139.7090  164.2103 C.3     1  UNL1        0.2542
     16 C         142.3110  141.6161  162.3469 C.ar    1  UNL1        0.0245
     17 C         142.4531  143.0623  162.7187 C.ar    1  UNL1        0.0200
     18 C         143.2337  143.9904  161.8361 C.ar    1  UNL1        0.1019
     19 N         143.8724  143.4724  160.5815 N.ar    1  UNL1       -0.2076
     20 C         143.7303  142.0262  160.2097 C.ar    1  UNL1        0.2598
     21 C         142.9496  141.0980  161.0924 C.ar    1  UNL1        0.1879
     22 O         144.3689  141.5081  158.9552 O.3     1  UNL1       -0.4541
     23 C         144.4713  142.3902  157.7464 C.3     1  UNL1        0.2543
     24 O         142.8076  139.6518  160.7206 O.3     1  UNL1       -0.4670
     25 C         143.9996  138.7428  160.7749 C.3     1  UNL1        0.2527
     26 C         140.4570  139.8202  162.6423 C.3     1  UNL1        0.1162
     27 O         141.2742  138.6007  162.9508 O.3     1  UNL1       -0.3820
     28 H         140.7959  137.8087  162.6593 H       1  UNL1        0.2107
     29 C         138.5430  142.6336  160.6000 C.ar    1  UNL1        0.2272
     30 C         139.3601  141.4141  160.9085 C.ar    1  UNL1        0.0559
     31 C         139.6399  141.0396  162.3338 C.ar    1  UNL1        0.0117
     32 C         139.1025  141.8846  163.4505 C.ar    1  UNL1        0.0560
     33 C         138.2854  143.1041  163.1420 C.ar    1  UNL1        0.2319
     34 N         138.0056  143.4786  161.7168 N.ar    1  UNL1       -0.1766
     35 C         139.0375  142.3626  158.0638 C.3     1  UNL1        0.2542
     36 O         138.2633  143.0081  159.1747 O.3     1  UNL1       -0.4561
     37 O         137.7480  143.9491  164.2589 O.3     1  UNL1       -0.4067
     38 C         138.6854  144.7600  165.1037 C.3     1  UNL1        0.5097
     39 F         138.1563  145.5517  166.2626 F       1  UNL1       -0.1549
     40 F         140.1521  144.7792  164.7895 F       1  UNL1       -0.1549
     41 C         139.3837  138.9524  162.0550 C.3     1  UNL1        0.0491
     42 C         138.4102  138.2508  162.9553 C.3     1  UNL1        0.0750
     43 N         138.6595  138.1982  164.4335 N.3     1  UNL1       -0.2702
     44 C         138.0639  139.2410  165.3321 C.3     1  UNL1        0.0897
     45 C         139.5044  137.1025  165.0130 C.3     1  UNL1        0.0897
@<TRIPOS>BOND
     1    35    36    1
     2    36    29    1
     3    29    30   ar
     4    30    31   ar
     5    31    26    1
     6    26    27    1
     7    26    41    1
     8    41    42    1
     9    42    43    1
    10    43    44    1
    11    43    45    1
    12    26     1    1
    13     1     2    1
    14     2     3   ar
    15     3     4   ar
    16     4     5   ar
    17     5     6   ar
    18     6    12    1
    19    12    13    3
    20     6     7   ar
    21     7     8   ar
    22     8     9   ar
    23     9    10   ar
    24    10    11   ar
    25    11    14    1
    26    14    15    1
    27     1    16    1
    28    16    17   ar
    29    17    18   ar
    30    18    19   ar
    31    19    20   ar
    32    20    22    1
    33    22    23    1
    34    20    21   ar
    35    21    24    1
    36    24    25    1
    37    31    32   ar
    38    32    33   ar
    39    33    37    1
    40    37    38    1
    41    38    39    1
    42    38    40    1
    43    33    34   ar
    44    34    29   ar
    45    11     2   ar
    46    21    16   ar
    47     9     4   ar
    48    27    28    1
@<TRIPOS>MOLECULE
*****
 45 48 0 0 0
SMALL
GASTEIGER

@<TRIPOS>ATOM
      1 C         141.6599  141.6663  162.5992 C.3     1  UNL1        0.0808
      2 C         142.0519  141.7600  164.0441 C.ar    1  UNL1        0.0375
      3 C         141.1849  141.1377  165.0982 C.ar    1  UNL1        0.0023
      4 C         141.5768  141.2313  166.5430 C.ar    1  UNL1        0.0183
      5 C         140.7098  140.6091  167.5971 C.ar    1  UNL1        0.0118
      6 C         141.1017  140.7027  169.0421 C.ar    1  UNL1        0.0685
      7 C         142.3606  141.4187  169.4328 C.ar    1  UNL1        0.0118
      8 C         143.2275  142.0409  168.3787 C.ar    1  UNL1        0.0199
      9 C         142.8357  141.9473  166.9339 C.ar    1  UNL1        0.0844
     10 N         143.7026  142.5696  165.8798 N.ar    1  UNL1       -0.2119
     11 C         143.3107  142.4759  164.4348 C.ar    1  UNL1        0.2211
     12 C         140.2347  140.0805  170.0962 C.1     1  UNL1        0.1004
     13 N         139.3678  139.4582  171.1503 N.1     1  UNL1       -0.1908
     14 O         144.1777  143.0982  163.3807 O.3     1  UNL1       -0.4563
     15 C         145.3970  142.2301  163.2829 C.3     1  UNL1        0.2542
     16 C         142.5153  140.8946  161.6386 C.ar    1  UNL1        0.0245
     17 C         142.7868  139.4390  161.8786 C.ar    1  UNL1        0.0200
     18 C         143.6421  138.6673  160.9180 C.ar    1  UNL1        0.1019
     19 N         144.2260  139.3512  159.7173 N.ar    1  UNL1       -0.2076
     20 C         143.9545  140.8067  159.4773 C.ar    1  UNL1        0.2598
     21 C         143.0991  141.5784  160.4380 C.ar    1  UNL1        0.1879
     22 O         144.5383  141.4906  158.2767 O.3     1  UNL1       -0.4541
     23 C         144.8595  140.6979  157.0445 C.3     1  UNL1        0.2543
     24 O         142.8276  143.0340  160.1980 O.3     1  UNL1       -0.4670
     25 C         141.9393  143.4543  159.0647 C.3     1  UNL1        0.2527
     26 C         140.4126  142.3444  162.1150 C.3     1  UNL1        0.1162
     27 O         140.9834  143.6748  162.5079 O.3     1  UNL1       -0.3820
     28 H         140.3459  144.3750  162.2973 H       1  UNL1        0.2107
     29 C         139.0611  139.3560  159.8806 C.ar    1  UNL1        0.2272
     30 C         139.6318  140.6863  160.2735 C.ar    1  UNL1        0.0559
     31 C         139.8419  141.0140  161.7220 C.ar    1  UNL1        0.0117
     32 C         139.4813  140.0113  162.7777 C.ar    1  UNL1        0.0560
     33 C         138.9106  138.6809  162.3848 C.ar    1  UNL1        0.2319
     34 N         138.7005  138.3533  160.9362 N.ar    1  UNL1       -0.1766
     35 C         139.8773  138.2263  157.6879 C.3     1  UNL1        0.2542
     36 O         138.8511  139.0283  158.4319 O.3     1  UNL1       -0.4561
     37 O         138.5499  137.6782  163.4406 O.3     1  UNL1       -0.4067
     38 C         139.0383  137.8614  164.8470 C.3     1  UNL1        0.5097
     39 F         140.5084  137.8183  165.1420 F       1  UNL1       -0.1549
     40 F         138.0566  138.0877  165.9583 F       1  UNL1       -0.1549
     41 C         139.1654  143.0225  161.6307 C.3     1  UNL1        0.0491
     42 C         138.4684  144.0233  162.5041 C.3     1  UNL1        0.0750
     43 N         138.3587  143.7825  163.9806 N.3     1  UNL1       -0.2702
     44 C         138.9203  144.7825  164.9474 C.3     1  UNL1        0.0897
     45 C         137.6872  142.5417  164.4902 C.3     1  UNL1        0.0897
@<TRIPOS>BOND
     1    35    36    1
     2    36    29    1
     3    29    30   ar
     4    30    31   ar
     5    31    26    1
     6    26    27    1
     7    26    41    1
     8    41    42    1
     9    42    43    1
    10    43    44    1
    11    43    45    1
    12    26     1    1
    13     1     2    1
    14     2     3   ar
    15     3     4   ar
    16     4     5   ar
    17     5     6   ar
    18     6    12    1
    19    12    13    3
    20     6     7   ar
    21     7     8   ar
    22     8     9   ar
    23     9    10   ar
    24    10    11   ar
    25    11    14    1
    26    14    15    1
    27     1    16    1
    28    16    17   ar
    29    17    18   ar
    30    18    19   ar
    31    19    20   ar
    32    20    22    1
    33    22    23    1
    34    20    21   ar
    35    21    24    1
    36    24    25    1
    37    31    32   ar
    38    32    33   ar
    39    33    37    1
    40    37    38    1
    41    38    39    1
    42    38    40    1
    43    33    34   ar
    44    34    29   ar
    45    11     2   ar
    46    21    16   ar
    47     9     4   ar
    48    27    28    1
@<TRIPOS>MOLECULE
*****
 45 48 0 0 0
SMALL
GASTEIGER

@<TRIPOS>ATOM
      1 C         142.0213  142.2628  162.9779 C.3     1  UNL1        0.0808
      2 C         142.3174  142.3016  164.4479 C.ar    1  UNL1        0.0375
      3 C         141.4435  141.5517  165.4090 C.ar    1  UNL1        0.0023
      4 C         141.7395  141.5904  166.8790 C.ar    1  UNL1        0.0183
      5 C         140.8656  140.8405  167.8401 C.ar    1  UNL1        0.0118
      6 C         141.1616  140.8793  169.3101 C.ar    1  UNL1        0.0685
      7 C         142.3316  141.6680  169.8190 C.ar    1  UNL1        0.0118
      8 C         143.2056  142.4180  168.8578 C.ar    1  UNL1        0.0199
      9 C         142.9096  142.3792  167.3879 C.ar    1  UNL1        0.0844
     10 N         143.7835  143.1292  166.4267 N.ar    1  UNL1       -0.2119
     11 C         143.4874  143.0904  164.9567 C.ar    1  UNL1        0.2211
     12 C         140.2877  140.1293  170.2713 C.1     1  UNL1        0.1004
     13 N         139.4137  139.3794  171.2324 N.1     1  UNL1       -0.1908
     14 O         144.3614  143.8403  163.9956 O.3     1  UNL1       -0.4563
     15 C         143.8686  145.2570  164.0078 C.3     1  UNL1        0.2542
     16 C         141.2326  143.3691  162.3422 C.ar    1  UNL1        0.0245
     17 C         139.9017  143.7636  162.9104 C.ar    1  UNL1        0.0200
     18 C         139.1130  144.8699  162.2748 C.ar    1  UNL1        0.1019
     19 N         139.6552  145.5816  161.0708 N.ar    1  UNL1       -0.2076
     20 C         140.9862  145.1871  160.5026 C.ar    1  UNL1        0.2598
     21 C         141.7749  144.0807  161.1383 C.ar    1  UNL1        0.1879
     22 O         141.5284  145.8987  159.2987 O.3     1  UNL1       -0.4541
     23 C         140.8641  145.7288  157.9646 C.3     1  UNL1        0.2543
     24 O         143.1058  143.6862  160.5701 O.3     1  UNL1       -0.4670
     25 C         143.1868  143.0819  159.1995 C.3     1  UNL1        0.2527
     26 C         142.5140  141.1177  162.1436 C.3     1  UNL1        0.1162
     27 O         143.9199  141.6221  162.2814 O.3     1  UNL1       -0.3820
     28 H         144.5233  141.0327  161.8025 H       1  UNL1        0.2107
     29 C         138.9920  140.2177  160.5513 C.ar    1  UNL1        0.2272
     30 C         140.3979  140.7221  160.6891 C.ar    1  UNL1        0.0559
     31 C         141.1080  140.6133  162.0058 C.ar    1  UNL1        0.0117
     32 C         140.4123  140.0000  163.1847 C.ar    1  UNL1        0.0560
     33 C         139.0064  139.4956  163.0469 C.ar    1  UNL1        0.2319
     34 N         138.2962  139.6044  161.7302 N.ar    1  UNL1       -0.1766
     35 C         139.0377  140.1199  157.9554 C.3     1  UNL1        0.2542
     36 O         138.2818  140.3265  159.2345 O.3     1  UNL1       -0.4561
     37 O         138.3107  138.8823  164.2258 O.3     1  UNL1       -0.4067
     38 C         138.0576  139.7014  165.4568 C.3     1  UNL1        0.5097
     39 F         138.2912  141.1828  165.4330 F       1  UNL1       -0.1549
     40 F         137.5710  139.0388  166.7115 F       1  UNL1       -0.1549
     41 C         143.0066  139.9726  161.3093 C.3     1  UNL1        0.0491
     42 C         143.7673  138.8500  161.9508 C.3     1  UNL1        0.0750
     43 N         143.8440  138.7541  163.4457 N.3     1  UNL1       -0.2702
     44 C         142.7501  138.0698  164.2105 C.3     1  UNL1        0.0897
     45 C         145.0148  139.3426  164.1759 C.3     1  UNL1        0.0897
@<TRIPOS>BOND
     1    35    36    1
     2    36    29    1
     3    29    30   ar
     4    30    31   ar
     5    31    26    1
     6    26    27    1
     7    26    41    1
     8    41    42    1
     9    42    43    1
    10    43    44    1
    11    43    45    1
    12    26     1    1
    13     1     2    1
    14     2     3   ar
    15     3     4   ar
    16     4     5   ar
    17     5     6   ar
    18     6    12    1
    19    12    13    3
    20     6     7   ar
    21     7     8   ar
    22     8     9   ar
    23     9    10   ar
    24    10    11   ar
    25    11    14    1
    26    14    15    1
    27     1    16    1
    28    16    17   ar
    29    17    18   ar
    30    18    19   ar
    31    19    20   ar
    32    20    22    1
    33    22    23    1
    34    20    21   ar
    35    21    24    1
    36    24    25    1
    37    31    32   ar
    38    32    33   ar
    39    33    37    1
    40    37    38    1
    41    38    39    1
    42    38    40    1
    43    33    34   ar
    44    34    29   ar
    45    11     2   ar
    46    21    16   ar
    47     9     4   ar
    48    27    28    1
@<TRIPOS>MOLECULE
*****
 45 48 0 0 0
SMALL
GASTEIGER

@<TRIPOS>ATOM
      1 C         141.4283  142.4104  162.4706 C.3     1  UNL1        0.0808
      2 C         141.9003  142.3524  163.8932 C.ar    1  UNL1        0.0375
      3 C         141.0424  141.7097  164.9425 C.ar    1  UNL1        0.0023
      4 C         141.5144  141.6518  166.3651 C.ar    1  UNL1        0.0183
      5 C         140.6564  141.0091  167.4143 C.ar    1  UNL1        0.0118
      6 C         141.1285  140.9511  168.8370 C.ar    1  UNL1        0.0685
      7 C         142.4584  141.5358  169.2103 C.ar    1  UNL1        0.0118
      8 C         143.3163  142.1785  168.1611 C.ar    1  UNL1        0.0199
      9 C         142.8443  142.2365  166.7385 C.ar    1  UNL1        0.0844
     10 N         143.7023  142.8792  165.6893 N.ar    1  UNL1       -0.2119
     11 C         143.2302  142.9372  164.2666 C.ar    1  UNL1        0.2211
     12 C         140.2705  140.3084  169.8862 C.1     1  UNL1        0.1004
     13 N         139.4126  139.6657  170.9355 N.1     1  UNL1       -0.1908
     14 O         144.0882  143.5799  163.2174 O.3     1  UNL1       -0.4563
     15 C         143.8730  145.0579  163.3558 C.3     1  UNL1        0.2542
     16 C         142.2916  141.8663  161.3712 C.ar    1  UNL1        0.0245
     17 C         142.6842  142.7455  160.2210 C.ar    1  UNL1        0.0200
     18 C         143.5474  142.2014  159.1217 C.ar    1  UNL1        0.1019
     19 N         144.0181  140.7780  159.1724 N.ar    1  UNL1       -0.2076
     20 C         143.6255  139.8988  160.3226 C.ar    1  UNL1        0.2598
     21 C         142.7622  140.4430  161.4220 C.ar    1  UNL1        0.1879
     22 O         144.0961  138.4755  160.3733 O.3     1  UNL1       -0.4541
     23 C         143.1407  137.3585  160.0743 C.3     1  UNL1        0.2543
     24 O         142.3696  139.5638  162.5721 O.3     1  UNL1       -0.4670
     25 C         143.4019  139.1273  163.5691 C.3     1  UNL1        0.2527
     26 C         140.0930  143.0125  162.1474 C.3     1  UNL1        0.1162
     27 O         140.6117  144.3674  162.5285 O.3     1  UNL1       -0.3820
     28 H         139.9094  145.0265  162.4137 H       1  UNL1        0.2107
     29 C         138.7939  139.9779  159.9442 C.ar    1  UNL1        0.2272
     30 C         139.3126  141.3328  160.3254 C.ar    1  UNL1        0.0559
     31 C         139.5743  141.6576  161.7662 C.ar    1  UNL1        0.0117
     32 C         139.3174  140.6275  162.8258 C.ar    1  UNL1        0.0560
     33 C         138.7988  139.2726  162.4447 C.ar    1  UNL1        0.2319
     34 N         138.5370  138.9479  161.0039 N.ar    1  UNL1       -0.1766
     35 C         138.0471  140.7223  157.5697 C.3     1  UNL1        0.2542
     36 O         138.5322  139.6532  158.5034 O.3     1  UNL1       -0.4561
     37 O         138.5418  138.2425  163.5044 O.3     1  UNL1       -0.4067
     38 C         138.9012  138.5296  164.9322 C.3     1  UNL1        0.5097
     39 F         137.8616  139.0579  165.8756 F       1  UNL1       -0.1549
     40 F         140.3003  138.2883  165.4165 F       1  UNL1       -0.1549
     41 C         138.7577  143.6146  161.8242 C.3     1  UNL1        0.0491
     42 C         138.0307  144.4248  162.8563 C.3     1  UNL1        0.0750
     43 N         138.0616  144.0065  164.2964 N.3     1  UNL1       -0.2702
     44 C         137.4971  142.6778  164.7037 C.3     1  UNL1        0.0897
     45 C         138.6569  144.9169  165.3293 C.3     1  UNL1        0.0897
@<TRIPOS>BOND
     1    35    36    1
     2    36    29    1
     3    29    30   ar
     4    30    31   ar
     5    31    26    1
     6    26    27    1
     7    26    41    1
     8    41    42    1
     9    42    43    1
    10    43    44    1
    11    43    45    1
    12    26     1    1
    13     1     2    1
    14     2     3   ar
    15     3     4   ar
    16     4     5   ar
    17     5     6   ar
    18     6    12    1
    19    12    13    3
    20     6     7   ar
    21     7     8   ar
    22     8     9   ar
    23     9    10   ar
    24    10    11   ar
    25    11    14    1
    26    14    15    1
    27     1    16    1
    28    16    17   ar
    29    17    18   ar
    30    18    19   ar
    31    19    20   ar
    32    20    22    1
    33    22    23    1
    34    20    21   ar
    35    21    24    1
    36    24    25    1
    37    31    32   ar
    38    32    33   ar
    39    33    37    1
    40    37    38    1
    41    38    39    1
    42    38    40    1
    43    33    34   ar
    44    34    29   ar
    45    11     2   ar
    46    21    16   ar
    47     9     4   ar
    48    27    28    1
@<TRIPOS>MOLECULE
*****
 45 48 0 0 0
SMALL
GASTEIGER

@<TRIPOS>ATOM
      1 C         140.5663  141.3759  162.5263 C.3     1  UNL1        0.0808
      2 C         140.5264  141.7920  163.9670 C.ar    1  UNL1        0.0375
      3 C         141.3196  141.0330  164.9891 C.ar    1  UNL1        0.0023
      4 C         141.2798  141.4490  166.4296 C.ar    1  UNL1        0.0183
      5 C         142.0730  140.6900  167.4517 C.ar    1  UNL1        0.0118
      6 C         142.0331  141.1061  168.8923 C.ar    1  UNL1        0.0685
      7 C         141.2000  142.2811  169.3108 C.ar    1  UNL1        0.0118
      8 C         140.4067  143.0401  168.2887 C.ar    1  UNL1        0.0199
      9 C         140.4466  142.6241  166.8482 C.ar    1  UNL1        0.0844
     10 N         139.6533  143.3831  165.8261 N.ar    1  UNL1       -0.2119
     11 C         139.6932  142.9670  164.3855 C.ar    1  UNL1        0.2211
     12 C         142.8264  140.3471  169.9144 C.1     1  UNL1        0.1004
     13 N         143.6196  139.5881  170.9365 N.1     1  UNL1       -0.1908
     14 O         138.9000  143.7260  163.3634 O.3     1  UNL1       -0.4563
     15 C         139.5439  145.0768  163.2600 C.3     1  UNL1        0.2542
     16 C         141.2046  142.2698  161.5049 C.ar    1  UNL1        0.0245
     17 C         142.6610  142.6121  161.6132 C.ar    1  UNL1        0.0200
     18 C         143.2993  143.5060  160.5917 C.ar    1  UNL1        0.1019
     19 N         142.4812  144.0578  159.4619 N.ar    1  UNL1       -0.2076
     20 C         141.0248  143.7155  159.3537 C.ar    1  UNL1        0.2598
     21 C         140.3865  142.8215  160.3752 C.ar    1  UNL1        0.1879
     22 O         140.2067  144.2672  158.2240 O.3     1  UNL1       -0.4541
     23 C         140.2580  145.7323  157.9065 C.3     1  UNL1        0.2543
     24 O         138.9301  142.4793  160.2669 O.3     1  UNL1       -0.4670
     25 C         138.4538  141.5630  159.1789 C.3     1  UNL1        0.2527
     26 C         139.9678  140.0659  162.1072 C.3     1  UNL1        0.1162
     27 O         138.6100  140.5556  162.5153 O.3     1  UNL1       -0.3820
     28 H         137.9525  139.8624  162.3477 H       1  UNL1        0.2107
     29 C         142.9599  138.7521  159.8553 C.ar    1  UNL1        0.2272
     30 C         141.6021  139.2419  160.2633 C.ar    1  UNL1        0.0559
     31 C         141.3256  139.5761  161.6992 C.ar    1  UNL1        0.0117
     32 C         142.4070  139.4207  162.7270 C.ar    1  UNL1        0.0560
     33 C         143.7648  138.9310  162.3189 C.ar    1  UNL1        0.2319
     34 N         144.0413  138.5967  160.8831 N.ar    1  UNL1       -0.1766
     35 C         142.2040  137.6957  157.6052 C.3     1  UNL1        0.2542
     36 O         143.2364  138.4178  158.4193 O.3     1  UNL1       -0.4561
     37 O         144.8462  138.7756  163.3469 O.3     1  UNL1       -0.4067
     38 C         144.6719  139.3673  164.7142 C.3     1  UNL1        0.5097
     39 F         144.6586  140.8568  164.8907 F       1  UNL1       -0.1549
     40 F         144.5108  138.4694  165.9050 F       1  UNL1       -0.1549
     41 C         139.3694  138.7558  161.6881 C.3     1  UNL1        0.0491
     42 C         138.7670  137.8436  162.7153 C.3     1  UNL1        0.0750
     43 N         139.3060  137.8307  164.1151 N.3     1  UNL1       -0.2702
     44 C         138.5645  138.5375  165.2108 C.3     1  UNL1        0.0897
     45 C         140.5865  137.1110  164.4191 C.3     1  UNL1        0.0897
@<TRIPOS>BOND
     1    35    36    1
     2    36    29    1
     3    29    30   ar
     4    30    31   ar
     5    31    26    1
     6    26    27    1
     7    26    41    1
     8    41    42    1
     9    42    43    1
    10    43    44    1
    11    43    45    1
    12    26     1    1
    13     1     2    1
    14     2     3   ar
    15     3     4   ar
    16     4     5   ar
    17     5     6   ar
    18     6    12    1
    19    12    13    3
    20     6     7   ar
    21     7     8   ar
    22     8     9   ar
    23     9    10   ar
    24    10    11   ar
    25    11    14    1
    26    14    15    1
    27     1    16    1
    28    16    17   ar
    29    17    18   ar
    30    18    19   ar
    31    19    20   ar
    32    20    22    1
    33    22    23    1
    34    20    21   ar
    35    21    24    1
    36    24    25    1
    37    31    32   ar
    38    32    33   ar
    39    33    37    1
    40    37    38    1
    41    38    39    1
    42    38    40    1
    43    33    34   ar
    44    34    29   ar
    45    11     2   ar
    46    21    16   ar
    47     9     4   ar
    48    27    28    1
@<TRIPOS>MOLECULE
*****
 45 48 0 0 0
SMALL
GASTEIGER

@<TRIPOS>ATOM
      1 C         142.0338  141.9306  162.7491 C.3     1  UNL1        0.0808
      2 C         142.3521  142.0281  164.2117 C.ar    1  UNL1        0.0375
      3 C         141.4861  141.3271  165.2161 C.ar    1  UNL1        0.0023
      4 C         141.8043  141.4245  166.6786 C.ar    1  UNL1        0.0183
      5 C         140.9384  140.7236  167.6830 C.ar    1  UNL1        0.0118
      6 C         141.2567  140.8210  169.1456 C.ar    1  UNL1        0.0685
      7 C         142.4409  141.6195  169.6039 C.ar    1  UNL1        0.0118
      8 C         143.3069  142.3205  168.5995 C.ar    1  UNL1        0.0199
      9 C         142.9886  142.2230  167.1369 C.ar    1  UNL1        0.0844
     10 N         143.8546  142.9240  166.1326 N.ar    1  UNL1       -0.2119
     11 C         143.5363  142.8265  164.6700 C.ar    1  UNL1        0.2211
     12 C         140.3907  140.1201  170.1499 C.1     1  UNL1        0.1004
     13 N         139.5247  139.4191  171.1543 N.1     1  UNL1       -0.1908
     14 O         144.4023  143.5275  163.6656 O.3     1  UNL1       -0.4563
     15 C         143.9785  144.9662  163.6870 C.3     1  UNL1        0.2542
     16 C         141.2611  143.0254  162.0751 C.ar    1  UNL1        0.0245
     17 C         139.8630  143.3393  162.5187 C.ar    1  UNL1        0.0200
     18 C         139.0903  144.4341  161.8447 C.ar    1  UNL1        0.1019
     19 N         139.7157  145.2150  160.7270 N.ar    1  UNL1       -0.2076
     20 C         141.1138  144.9011  160.2834 C.ar    1  UNL1        0.2598
     21 C         141.8865  143.8062  160.9575 C.ar    1  UNL1        0.1879
     22 O         141.7392  145.6820  159.1658 O.3     1  UNL1       -0.4541
     23 C         141.1008  145.6913  157.8085 C.3     1  UNL1        0.2543
     24 O         143.2846  143.4923  160.5139 O.3     1  UNL1       -0.4670
     25 C         143.5455  143.0714  159.0979 C.3     1  UNL1        0.2527
     26 C         142.4882  140.7382  161.9605 C.3     1  UNL1        0.1162
     27 O         143.9005  141.2408  162.0145 O.3     1  UNL1       -0.3820
     28 H         144.4820  140.6222  161.5453 H       1  UNL1        0.2107
     29 C         139.0903  138.9808  163.0167 C.ar    1  UNL1        0.2272
     30 C         140.5026  139.4834  163.0707 C.ar    1  UNL1        0.0559
     31 C         141.0759  140.2357  161.9066 C.ar    1  UNL1        0.0117
     32 C         140.2370  140.4854  160.6884 C.ar    1  UNL1        0.0560
     33 C         138.8248  139.9828  160.6345 C.ar    1  UNL1        0.2319
     34 N         138.2514  139.2305  161.7986 N.ar    1  UNL1       -0.1766
     35 C         138.4528  138.8746  165.5332 C.3     1  UNL1        0.2542
     36 O         138.5170  138.2285  164.1810 O.3     1  UNL1       -0.4561
     37 O         137.9858  140.2325  159.4163 O.3     1  UNL1       -0.4067
     38 C         138.3029  141.3856  158.5108 C.3     1  UNL1        0.5097
     39 F         138.6886  141.1342  157.0833 F       1  UNL1       -0.1549
     40 F         138.2343  142.7902  159.0330 F       1  UNL1       -0.1549
     41 C         142.9426  139.5459  161.1719 C.3     1  UNL1        0.0491
     42 C         143.7723  139.7355  159.9367 C.3     1  UNL1        0.0750
     43 N         143.3493  139.1021  158.6445 N.3     1  UNL1       -0.2702
     44 C         142.6872  137.7561  158.6505 C.3     1  UNL1        0.0897
     45 C         143.5883  139.8146  157.3463 C.3     1  UNL1        0.0897
@<TRIPOS>BOND
     1    35    36    1
     2    36    29    1
     3    29    30   ar
     4    30    31   ar
     5    31    26    1
     6    26    27    1
     7    26    41    1
     8    41    42    1
     9    42    43    1
    10    43    44    1
    11    43    45    1
    12    26     1    1
    13     1     2    1
    14     2     3   ar
    15     3     4   ar
    16     4     5   ar
    17     5     6   ar
    18     6    12    1
    19    12    13    3
    20     6     7   ar
    21     7     8   ar
    22     8     9   ar
    23     9    10   ar
    24    10    11   ar
    25    11    14    1
    26    14    15    1
    27     1    16    1
    28    16    17   ar
    29    17    18   ar
    30    18    19   ar
    31    19    20   ar
    32    20    22    1
    33    22    23    1
    34    20    21   ar
    35    21    24    1
    36    24    25    1
    37    31    32   ar
    38    32    33   ar
    39    33    37    1
    40    37    38    1
    41    38    39    1
    42    38    40    1
    43    33    34   ar
    44    34    29   ar
    45    11     2   ar
    46    21    16   ar
    47     9     4   ar
    48    27    28    1
@<TRIPOS>MOLECULE
*****
 45 48 0 0 0
SMALL
GASTEIGER

@<TRIPOS>ATOM
      1 C         141.5919  142.0916  162.4387 C.3     1  UNL1        0.0808
      2 C         142.0274  142.1324  163.8735 C.ar    1  UNL1        0.0375
      3 C         141.1826  141.4879  164.9323 C.ar    1  UNL1        0.0023
      4 C         141.6180  141.5286  166.3671 C.ar    1  UNL1        0.0183
      5 C         140.7732  140.8841  167.4258 C.ar    1  UNL1        0.0118
      6 C         141.2086  140.9249  168.8607 C.ar    1  UNL1        0.0685
      7 C         142.4888  141.6101  169.2368 C.ar    1  UNL1        0.0118
      8 C         143.3336  142.2546  168.1780 C.ar    1  UNL1        0.0199
      9 C         142.8982  142.2139  166.7432 C.ar    1  UNL1        0.0844
     10 N         143.7430  142.8584  165.6845 N.ar    1  UNL1       -0.2119
     11 C         143.3075  142.8177  164.2496 C.ar    1  UNL1        0.2211
     12 C         140.3638  140.2803  169.9194 C.1     1  UNL1        0.1004
     13 N         139.5190  139.6358  170.9782 N.1     1  UNL1       -0.1908
     14 O         144.1523  143.4622  163.1909 O.3     1  UNL1       -0.4563
     15 C         143.8834  144.9347  163.2870 C.3     1  UNL1        0.2542
     16 C         142.4620  141.4335  161.4092 C.ar    1  UNL1        0.0245
     17 C         142.7639  139.9676  161.5088 C.ar    1  UNL1        0.0200
     18 C         143.6340  139.3094  160.4794 C.ar    1  UNL1        0.1019
     19 N         144.2021  140.1172  159.3503 N.ar    1  UNL1       -0.2076
     20 C         143.9002  141.5831  159.2507 C.ar    1  UNL1        0.2598
     21 C         143.0301  142.2412  160.2802 C.ar    1  UNL1        0.1879
     22 O         144.4683  142.3908  158.1217 O.3     1  UNL1       -0.4541
     23 C         145.4443  141.7660  157.1694 C.3     1  UNL1        0.2543
     24 O         142.7281  143.7072  160.1806 O.3     1  UNL1       -0.4670
     25 C         141.8324  144.2160  159.0902 C.3     1  UNL1        0.2527
     26 C         140.2863  142.7091  162.0333 C.3     1  UNL1        0.1162
     27 O         140.7966  144.0582  162.4450 O.3     1  UNL1       -0.3820
     28 H         140.1106  144.7255  162.2865 H       1  UNL1        0.2107
     29 C         138.9777  138.9687  162.2497 C.ar    1  UNL1        0.2272
     30 C         139.4880  140.3178  162.6613 C.ar    1  UNL1        0.0559
     31 C         139.7761  141.3599  161.6217 C.ar    1  UNL1        0.0117
     32 C         139.5540  141.0529  160.1703 C.ar    1  UNL1        0.0560
     33 C         139.0438  139.7037  159.7587 C.ar    1  UNL1        0.2319
     34 N         138.7556  138.6616  160.7983 N.ar    1  UNL1       -0.1766
     35 C         139.6039  137.7704  164.4682 C.3     1  UNL1        0.2542
     36 O         138.6896  137.9265  163.2894 O.3     1  UNL1       -0.4561
     37 O         138.8217  139.3967  158.3073 O.3     1  UNL1       -0.4067
     38 C         138.3587  140.4765  157.3746 C.3     1  UNL1        0.5097
     39 F         139.2928  141.0205  156.3347 F       1  UNL1       -0.1549
     40 F         136.9617  141.0122  157.4820 F       1  UNL1       -0.1549
     41 C         138.9808  143.3265  161.6279 C.3     1  UNL1        0.0491
     42 C         138.2330  144.2000  162.5913 C.3     1  UNL1        0.0750
     43 N         138.2150  143.8610  164.0524 N.3     1  UNL1       -0.2702
     44 C         138.7851  144.8226  165.0525 C.3     1  UNL1        0.0897
     45 C         137.6268  142.5603  164.5134 C.3     1  UNL1        0.0897
@<TRIPOS>BOND
     1    35    36    1
     2    36    29    1
     3    29    30   ar
     4    30    31   ar
     5    31    26    1
     6    26    27    1
     7    26    41    1
     8    41    42    1
     9    42    43    1
    10    43    44    1
    11    43    45    1
    12    26     1    1
    13     1     2    1
    14     2     3   ar
    15     3     4   ar
    16     4     5   ar
    17     5     6   ar
    18     6    12    1
    19    12    13    3
    20     6     7   ar
    21     7     8   ar
    22     8     9   ar
    23     9    10   ar
    24    10    11   ar
    25    11    14    1
    26    14    15    1
    27     1    16    1
    28    16    17   ar
    29    17    18   ar
    30    18    19   ar
    31    19    20   ar
    32    20    22    1
    33    22    23    1
    34    20    21   ar
    35    21    24    1
    36    24    25    1
    37    31    32   ar
    38    32    33   ar
    39    33    37    1
    40    37    38    1
    41    38    39    1
    42    38    40    1
    43    33    34   ar
    44    34    29   ar
    45    11     2   ar
    46    21    16   ar
    47     9     4   ar
    48    27    28    1
@<TRIPOS>MOLECULE
*****
 45 48 0 0 0
SMALL
GASTEIGER

@<TRIPOS>ATOM
      1 C         141.5631  140.8426  162.1077 C.3     1  UNL1        0.0808
      2 C         141.7793  140.7033  163.5855 C.ar    1  UNL1        0.0375
      3 C         141.2343  141.7386  164.5241 C.ar    1  UNL1        0.0023
      4 C         141.4505  141.5994  166.0018 C.ar    1  UNL1        0.0183
      5 C         140.9054  142.6347  166.9404 C.ar    1  UNL1        0.0118
      6 C         141.1216  142.4954  168.4183 C.ar    1  UNL1        0.0685
      7 C         141.8828  141.3208  168.9574 C.ar    1  UNL1        0.0118
      8 C         142.4279  140.2854  168.0188 C.ar    1  UNL1        0.0199
      9 C         142.2117  140.4247  166.5411 C.ar    1  UNL1        0.0844
     10 N         142.7567  139.3893  165.6025 N.ar    1  UNL1       -0.2119
     11 C         142.5405  139.5286  164.1247 C.ar    1  UNL1        0.2211
     12 C         140.5766  143.5308  169.3569 C.1     1  UNL1        0.1004
     13 N         140.0316  144.5661  170.2954 N.1     1  UNL1       -0.1908
     14 O         143.0856  138.4933  163.1861 O.3     1  UNL1       -0.4563
     15 C         144.5215  138.8601  162.9546 C.3     1  UNL1        0.2542
     16 C         142.6737  141.3403  161.2308 C.ar    1  UNL1        0.0245
     17 C         143.4166  142.5904  161.5985 C.ar    1  UNL1        0.0200
     18 C         144.5272  143.0882  160.7216 C.ar    1  UNL1        0.1019
     19 N         144.8948  142.3358  159.4771 N.ar    1  UNL1       -0.2076
     20 C         144.1519  141.0856  159.1095 C.ar    1  UNL1        0.2598
     21 C         143.0413  140.5879  159.9864 C.ar    1  UNL1        0.1879
     22 O         144.5195  140.3332  157.8650 O.3     1  UNL1       -0.4541
     23 C         145.3120  141.0098  156.7861 C.3     1  UNL1        0.2543
     24 O         142.2983  139.3378  159.6187 O.3     1  UNL1       -0.4670
     25 C         142.9866  138.0070  159.6929 C.3     1  UNL1        0.2527
     26 C         140.2363  140.4841  161.5067 C.3     1  UNL1        0.1162
     27 O         140.5363  139.0289  161.7125 O.3     1  UNL1       -0.3820
     28 H         139.7920  138.4967  161.3905 H       1  UNL1        0.2107
     29 C         139.8351  144.0177  159.7453 C.ar    1  UNL1        0.2272
     30 C         140.1351  142.5625  159.9511 C.ar    1  UNL1        0.0559
     31 C         139.9364  141.9393  161.3010 C.ar    1  UNL1        0.0117
     32 C         139.4377  142.7714  162.4450 C.ar    1  UNL1        0.0560
     33 C         139.1378  144.2266  162.2393 C.ar    1  UNL1        0.2319
     34 N         139.3365  144.8498  160.8894 N.ar    1  UNL1       -0.1766
     35 C         141.3283  145.3245  158.0682 C.3     1  UNL1        0.2542
     36 O         140.0338  144.6409  158.3954 O.3     1  UNL1       -0.4561
     37 O         138.6391  145.0587  163.3834 O.3     1  UNL1       -0.4067
     38 C         138.3033  144.4088  164.6929 C.3     1  UNL1        0.5097
     39 F         137.4213  143.1959  164.7239 F       1  UNL1       -0.1549
     40 F         138.8495  144.9718  165.9715 F       1  UNL1       -0.1549
     41 C         138.9095  140.1257  160.9058 C.3     1  UNL1        0.0491
     42 C         137.8148  139.5816  161.7752 C.3     1  UNL1        0.0750
     43 N         138.1356  139.0513  163.1412 N.3     1  UNL1       -0.2702
     44 C         138.0593  139.9571  164.3343 C.3     1  UNL1        0.0897
     45 C         138.5326  137.6151  163.3140 C.3     1  UNL1        0.0897
@<TRIPOS>BOND
     1    35    36    1
     2    36    29    1
     3    29    30   ar
     4    30    31   ar
     5    31    26    1
     6    26    27    1
     7    26    41    1
     8    41    42    1
     9    42    43    1
    10    43    44    1
    11    43    45    1
    12    26     1    1
    13     1     2    1
    14     2     3   ar
    15     3     4   ar
    16     4     5   ar
    17     5     6   ar
    18     6    12    1
    19    12    13    3
    20     6     7   ar
    21     7     8   ar
    22     8     9   ar
    23     9    10   ar
    24    10    11   ar
    25    11    14    1
    26    14    15    1
    27     1    16    1
    28    16    17   ar
    29    17    18   ar
    30    18    19   ar
    31    19    20   ar
    32    20    22    1
    33    22    23    1
    34    20    21   ar
    35    21    24    1
    36    24    25    1
    37    31    32   ar
    38    32    33   ar
    39    33    37    1
    40    37    38    1
    41    38    39    1
    42    38    40    1
    43    33    34   ar
    44    34    29   ar
    45    11     2   ar
    46    21    16   ar
    47     9     4   ar
    48    27    28    1
