@<TRIPOS>MOLECULE
*****
 34 37 0 0 0
SMALL
GASTEIGER

@<TRIPOS>ATOM
      1 N         139.4670  140.3966  167.7590 N.ar    1  UNL1       -0.2380
      2 N         140.2594  141.3401  166.9035 N.ar    1  UNL1       -0.1680
      3 C         139.9954  140.9967  165.4674 C.ar    1  UNL1        0.1079
      4 C         139.0399  139.8409  165.4353 C.ar    1  UNL1        0.1031
      5 C         138.7132  139.4700  166.8515 C.ar    1  UNL1        0.1281
      6 N         137.7942  138.3663  167.2843 N.pl3   1  UNL1       -0.3427
      7 H         137.3426  137.8089  166.6101 H       1  UNL1        0.1437
      8 H         137.6427  138.1993  168.2426 H       1  UNL1        0.1437
      9 C         140.5838  141.6878  164.2731 C.ar    1  UNL1        0.0196
     10 C         141.9200  141.2606  163.7421 C.ar    1  UNL1        0.0016
     11 C         142.5083  141.9516  162.5479 C.ar    1  UNL1        0.0001
     12 C         141.7604  143.0700  161.8846 C.ar    1  UNL1        0.0030
     13 C         142.3487  143.7611  160.6903 C.ar    1  UNL1        0.0369
     14 C         141.6008  144.8795  160.0271 C.ar    1  UNL1        0.1384
     15 C         140.2645  145.3067  160.5581 C.ar    1  UNL1        0.0369
     16 C         139.6763  144.6156  161.7523 C.ar    1  UNL1        0.0031
     17 C         140.4242  143.4973  162.4156 C.ar    1  UNL1        0.0002
     18 C         139.8359  142.8062  163.6098 C.ar    1  UNL1        0.0016
     19 O         142.1891  145.5706  158.8328 O.3     1  UNL1       -0.4792
     20 C         141.3285  145.8734  157.6421 C.3     1  UNL1        0.1661
     21 C         140.0176  146.3215  157.0670 C.3     1  UNL1        0.0472
     22 C         141.1489  145.9499  156.1549 C.3     1  UNL1        0.0472
     23 C         138.5048  139.1733  164.2032 C.2     1  UNL1        0.2470
     24 N         138.7945  137.7235  163.9498 N.am    1  UNL1       -0.3252
     25 O         137.6800  139.9555  163.2245 O.2     1  UNL1       -0.2702
     26 H         139.3359  137.2101  164.5922 H       1  UNL1        0.1453
     27 H         138.4433  137.2854  163.1412 H       1  UNL1        0.1453
     28 C         139.4340  140.3821  169.2585 C.3     1  UNL1        0.1311
     29 C         141.3427  139.6135  169.7746 C.3     1  UNL1        0.0045
     30 C         140.6079  140.8941  170.0395 C.3     1  UNL1        0.0497
     31 C         139.8731  142.1746  170.3043 C.3     1  UNL1        0.0045
     32 C         141.7818  141.4062  170.8205 C.3     1  UNL1        0.1389
     33 O         142.2139  140.7024  172.0727 O.3     1  UNL1       -0.3819
     34 H         141.5213  140.7869  172.7465 H       1  UNL1        0.2104
@<TRIPOS>BOND
     1    29    30    1
     2    30    31    1
     3    30    32    1
     4    32    33    1
     5    30    28    1
     6    28     1    1
     7     1     2   ar
     8     2     3   ar
     9     3     9    1
    10     9    10   ar
    11    10    11   ar
    12    11    12   ar
    13    12    13   ar
    14    13    14   ar
    15    14    19    1
    16    19    20    1
    17    20    21    1
    18    21    22    1
    19    14    15   ar
    20    15    16   ar
    21    16    17   ar
    22    17    18   ar
    23     3     4   ar
    24     4    23    1
    25    23    24   am
    26    23    25    2
    27     4     5   ar
    28     5     6    1
    29     5     1   ar
    30    18     9   ar
    31    17    12   ar
    32    22    20    1
    33    33    34    1
    34    24    26    1
    35    24    27    1
    36     6     7    1
    37     6     8    1
@<TRIPOS>MOLECULE
*****
 34 37 0 0 0
SMALL
GASTEIGER

@<TRIPOS>ATOM
      1 N         139.5025  140.5732  167.8779 N.ar    1  UNL1       -0.2380
      2 N         140.0483  141.7361  167.1035 N.ar    1  UNL1       -0.1680
      3 C         139.6024  141.5942  165.6783 C.ar    1  UNL1        0.1079
      4 C         138.7809  140.3437  165.5720 C.ar    1  UNL1        0.1031
      5 C         138.7192  139.7126  166.9313 C.ar    1  UNL1        0.1281
      6 N         138.0004  138.4437  167.2826 N.pl3   1  UNL1       -0.3427
      7 H         137.5110  137.9467  166.5878 H       1  UNL1        0.1437
      8 H         138.0179  138.1080  168.2079 H       1  UNL1        0.1437
      9 C         139.9218  142.5374  164.5565 C.ar    1  UNL1        0.0196
     10 C         139.5144  143.9780  164.6489 C.ar    1  UNL1        0.0016
     11 C         139.8339  144.9211  163.5271 C.ar    1  UNL1        0.0001
     12 C         140.5607  144.4236  162.3129 C.ar    1  UNL1        0.0030
     13 C         140.8802  145.3668  161.1911 C.ar    1  UNL1        0.0369
     14 C         141.6070  144.8693  159.9769 C.ar    1  UNL1        0.1384
     15 C         142.0144  143.4285  159.8846 C.ar    1  UNL1        0.0369
     16 C         141.6950  142.4854  161.0064 C.ar    1  UNL1        0.0031
     17 C         140.9681  142.9830  162.2206 C.ar    1  UNL1        0.0002
     18 C         140.6487  142.0399  163.3424 C.ar    1  UNL1        0.0016
     19 O         141.9265  145.8124  158.8552 O.3     1  UNL1       -0.4792
     20 C         141.0846  145.8137  157.6136 C.3     1  UNL1        0.1661
     21 C         140.7400  145.2264  156.2771 C.3     1  UNL1        0.0472
     22 C         139.9710  146.4033  156.7999 C.3     1  UNL1        0.0472
     23 C         138.1347  139.8166  164.3251 C.2     1  UNL1        0.2470
     24 N         137.1950  140.6852  163.5427 N.am    1  UNL1       -0.3252
     25 O         138.4283  138.4208  163.8607 O.2     1  UNL1       -0.2702
     26 H         137.0022  141.6013  163.8474 H       1  UNL1        0.1453
     27 H         136.7709  140.3392  162.7243 H       1  UNL1        0.1453
     28 C         139.7044  140.3160  169.3418 C.3     1  UNL1        0.1311
     29 C         140.1962  141.9539  170.5971 C.3     1  UNL1        0.0045
     30 C         140.9532  140.7936  170.0220 C.3     1  UNL1        0.0497
     31 C         141.7101  139.6334  169.4469 C.3     1  UNL1        0.0045
     32 C         142.2019  141.2713  170.7021 C.3     1  UNL1        0.1389
     33 O         142.1116  142.2537  171.8320 O.3     1  UNL1       -0.3819
     34 H         141.7745  143.0999  171.4985 H       1  UNL1        0.2104
@<TRIPOS>BOND
     1    29    30    1
     2    30    31    1
     3    30    32    1
     4    32    33    1
     5    30    28    1
     6    28     1    1
     7     1     2   ar
     8     2     3   ar
     9     3     9    1
    10     9    10   ar
    11    10    11   ar
    12    11    12   ar
    13    12    13   ar
    14    13    14   ar
    15    14    19    1
    16    19    20    1
    17    20    21    1
    18    21    22    1
    19    14    15   ar
    20    15    16   ar
    21    16    17   ar
    22    17    18   ar
    23     3     4   ar
    24     4    23    1
    25    23    24   am
    26    23    25    2
    27     4     5   ar
    28     5     6    1
    29     5     1   ar
    30    18     9   ar
    31    17    12   ar
    32    22    20    1
    33    33    34    1
    34    24    26    1
    35    24    27    1
    36     6     7    1
    37     6     8    1
@<TRIPOS>MOLECULE
*****
 34 37 0 0 0
SMALL
GASTEIGER

@<TRIPOS>ATOM
      1 N         140.2647  141.0456  168.6986 N.ar    1  UNL1       -0.2380
      2 N         140.9805  141.2354  167.3941 N.ar    1  UNL1       -0.1680
      3 C         140.3313  140.3462  166.3754 C.ar    1  UNL1        0.1079
      4 C         139.2142  139.6068  167.0502 C.ar    1  UNL1        0.1031
      5 C         139.1731  140.0390  168.4860 C.ar    1  UNL1        0.1281
      6 N         138.2094  139.5504  169.5265 N.pl3   1  UNL1       -0.3427
      7 H         137.5242  138.8847  169.2889 H       1  UNL1        0.1437
      8 H         138.2622  139.8955  170.4470 H       1  UNL1        0.1437
      9 C         140.7293  140.2189  164.9347 C.ar    1  UNL1        0.0196
     10 C         139.9866  140.9854  163.8808 C.ar    1  UNL1        0.0016
     11 C         140.3846  140.8580  162.4402 C.ar    1  UNL1        0.0001
     12 C         141.5254  139.9641  162.0536 C.ar    1  UNL1        0.0030
     13 C         141.9234  139.8367  160.6129 C.ar    1  UNL1        0.0369
     14 C         143.0642  138.9428  160.2262 C.ar    1  UNL1        0.1384
     15 C         143.8070  138.1763  161.2802 C.ar    1  UNL1        0.0369
     16 C         143.4089  138.3037  162.7208 C.ar    1  UNL1        0.0031
     17 C         142.2681  139.1976  163.1074 C.ar    1  UNL1        0.0002
     18 C         141.8701  139.3250  164.5480 C.ar    1  UNL1        0.0016
     19 O         143.4622  138.8154  158.7856 O.3     1  UNL1       -0.4792
     20 C         142.7039  137.8941  157.8766 C.3     1  UNL1        0.1661
     21 C         141.4628  137.5664  157.1004 C.3     1  UNL1        0.0472
     22 C         142.6314  136.6263  157.0784 C.3     1  UNL1        0.0472
     23 C         138.2990  138.6102  166.4029 C.2     1  UNL1        0.2470
     24 N         138.6429  138.0377  165.0598 N.am    1  UNL1       -0.3252
     25 O         137.0396  138.1860  167.0988 O.2     1  UNL1       -0.2702
     26 H         139.4694  138.3161  164.6030 H       1  UNL1        0.1453
     27 H         138.0422  137.3836  164.6350 H       1  UNL1        0.1453
     28 C         140.5844  141.7403  169.9890 C.3     1  UNL1        0.1311
     29 C         142.5113  140.9899  170.4623 C.3     1  UNL1        0.0045
     30 C         141.9388  142.3507  170.1967 C.3     1  UNL1        0.0497
     31 C         141.3663  143.7113  169.9310 C.3     1  UNL1        0.0045
     32 C         143.2932  142.9611  170.4044 C.3     1  UNL1        0.1389
     33 O         143.4547  144.1308  171.3294 O.3     1  UNL1       -0.3819
     34 H         142.9849  144.8977  170.9659 H       1  UNL1        0.2104
@<TRIPOS>BOND
     1    29    30    1
     2    30    31    1
     3    30    32    1
     4    32    33    1
     5    30    28    1
     6    28     1    1
     7     1     2   ar
     8     2     3   ar
     9     3     9    1
    10     9    10   ar
    11    10    11   ar
    12    11    12   ar
    13    12    13   ar
    14    13    14   ar
    15    14    19    1
    16    19    20    1
    17    20    21    1
    18    21    22    1
    19    14    15   ar
    20    15    16   ar
    21    16    17   ar
    22    17    18   ar
    23     3     4   ar
    24     4    23    1
    25    23    24   am
    26    23    25    2
    27     4     5   ar
    28     5     6    1
    29     5     1   ar
    30    18     9   ar
    31    17    12   ar
    32    22    20    1
    33    33    34    1
    34    24    26    1
    35    24    27    1
    36     6     7    1
    37     6     8    1
@<TRIPOS>MOLECULE
*****
 34 37 0 0 0
SMALL
GASTEIGER

@<TRIPOS>ATOM
      1 N         142.5197  139.7178  167.7501 N.ar    1  UNL1       -0.2380
      2 N         141.9556  140.9356  167.0803 N.ar    1  UNL1       -0.1680
      3 C         142.4208  140.9378  165.6543 C.ar    1  UNL1        0.1079
      4 C         143.2725  139.7214  165.4427 C.ar    1  UNL1        0.1031
      5 C         143.3337  138.9673  166.7379 C.ar    1  UNL1        0.1281
      6 N         144.0781  137.6875  166.9788 N.pl3   1  UNL1       -0.3427
      7 H         144.5868  137.2688  166.2473 H       1  UNL1        0.1437
      8 H         144.0579  137.2663  167.8684 H       1  UNL1        0.1437
      9 C         142.0920  141.9745  164.6212 C.ar    1  UNL1        0.0196
     10 C         142.6821  143.3497  164.7244 C.ar    1  UNL1        0.0016
     11 C         142.3533  144.3863  163.6913 C.ar    1  UNL1        0.0001
     12 C         141.4344  144.0478  162.5551 C.ar    1  UNL1        0.0030
     13 C         141.1056  145.0845  161.5220 C.ar    1  UNL1        0.0369
     14 C         140.1867  144.7460  160.3858 C.ar    1  UNL1        0.1384
     15 C         139.5966  143.3708  160.2826 C.ar    1  UNL1        0.0369
     16 C         139.9254  142.3341  161.3157 C.ar    1  UNL1        0.0031
     17 C         140.8443  142.6727  162.4519 C.ar    1  UNL1        0.0002
     18 C         141.1731  141.6360  163.4849 C.ar    1  UNL1        0.0016
     19 O         139.8579  145.7827  159.3527 O.3     1  UNL1       -0.4792
     20 C         140.5236  145.7401  158.0091 C.3     1  UNL1        0.1661
     21 C         141.7583  145.8646  157.1666 C.3     1  UNL1        0.0472
     22 C         140.4417  145.5418  156.5246 C.3     1  UNL1        0.0472
     23 C         143.9450  139.3280  164.1609 C.2     1  UNL1        0.2470
     24 N         145.2945  139.8867  163.8196 N.am    1  UNL1       -0.3252
     25 O         143.2679  138.3756  163.2203 O.2     1  UNL1       -0.2702
     26 H         145.7390  140.5118  164.4370 H       1  UNL1        0.1453
     27 H         145.7359  139.6285  162.9784 H       1  UNL1        0.1453
     28 C         142.3073  139.3202  169.1807 C.3     1  UNL1        0.1311
     29 C         143.2872  140.8401  170.2896 C.3     1  UNL1        0.0045
     30 C         141.8751  140.3446  170.1876 C.3     1  UNL1        0.0497
     31 C         140.4631  139.8491  170.0856 C.3     1  UNL1        0.0045
     32 C         141.4429  141.3690  171.1945 C.3     1  UNL1        0.1389
     33 O         142.3292  142.5397  171.5010 O.3     1  UNL1       -0.3819
     34 H         143.1426  142.2267  171.9267 H       1  UNL1        0.2104
@<TRIPOS>BOND
     1    29    30    1
     2    30    31    1
     3    30    32    1
     4    32    33    1
     5    30    28    1
     6    28     1    1
     7     1     2   ar
     8     2     3   ar
     9     3     9    1
    10     9    10   ar
    11    10    11   ar
    12    11    12   ar
    13    12    13   ar
    14    13    14   ar
    15    14    19    1
    16    19    20    1
    17    20    21    1
    18    21    22    1
    19    14    15   ar
    20    15    16   ar
    21    16    17   ar
    22    17    18   ar
    23     3     4   ar
    24     4    23    1
    25    23    24   am
    26    23    25    2
    27     4     5   ar
    28     5     6    1
    29     5     1   ar
    30    18     9   ar
    31    17    12   ar
    32    22    20    1
    33    33    34    1
    34    24    26    1
    35    24    27    1
    36     6     7    1
    37     6     8    1
@<TRIPOS>MOLECULE
*****
 34 37 0 0 0
SMALL
GASTEIGER

@<TRIPOS>ATOM
      1 N         140.3785  141.8139  167.7222 N.ar    1  UNL1       -0.2380
      2 N         140.2410  142.0591  166.2488 N.ar    1  UNL1       -0.1680
      3 C         139.4768  140.9118  165.6573 C.ar    1  UNL1        0.1079
      4 C         139.1420  139.9576  166.7651 C.ar    1  UNL1        0.1031
      5 C         139.6993  140.5151  168.0413 C.ar    1  UNL1        0.1281
      6 N         139.5955  139.8845  169.3984 N.pl3   1  UNL1       -0.3427
      7 H         139.1271  139.0255  169.5075 H       1  UNL1        0.1437
      8 H         139.9959  140.3297  170.1799 H       1  UNL1        0.1437
      9 C         139.1115  140.7477  164.2117 C.ar    1  UNL1        0.0196
     10 C         137.7752  141.2170  163.7178 C.ar    1  UNL1        0.0016
     11 C         137.4100  141.0528  162.2723 C.ar    1  UNL1        0.0001
     12 C         138.3811  140.4194  161.3206 C.ar    1  UNL1        0.0030
     13 C         138.0158  140.2552  159.8750 C.ar    1  UNL1        0.0369
     14 C         138.9869  139.6217  158.9233 C.ar    1  UNL1        0.1384
     15 C         140.3233  139.1524  159.4173 C.ar    1  UNL1        0.0369
     16 C         140.6885  139.3166  160.8628 C.ar    1  UNL1        0.0031
     17 C         139.7174  139.9501  161.8145 C.ar    1  UNL1        0.0002
     18 C         140.0826  140.1142  163.2600 C.ar    1  UNL1        0.0016
     19 O         138.6217  139.4576  157.4778 O.3     1  UNL1       -0.4792
     20 C         138.0088  140.6009  156.7245 C.3     1  UNL1        0.1661
     21 C         137.1234  141.8113  156.6952 C.3     1  UNL1        0.0472
     22 C         137.8328  141.3706  155.4492 C.3     1  UNL1        0.0472
     23 C         138.3831  138.6717  166.6220 C.2     1  UNL1        0.2470
     24 N         138.6791  137.7496  165.4766 N.am    1  UNL1       -0.3252
     25 O         137.3281  138.3079  167.6244 O.2     1  UNL1       -0.2702
     26 H         139.3715  137.9883  164.8187 H       1  UNL1        0.1453
     27 H         138.1810  136.9056  165.3827 H       1  UNL1        0.1453
     28 C         141.0733  142.7101  168.7041 C.3     1  UNL1        0.1311
     29 C         142.9814  142.2237  167.9148 C.3     1  UNL1        0.0045
     30 C         142.3911  142.3000  169.2917 C.3     1  UNL1        0.0497
     31 C         141.8008  142.3763  170.6685 C.3     1  UNL1        0.0045
     32 C         143.7089  141.8899  169.8794 C.3     1  UNL1        0.1389
     33 O         144.7234  142.9322  170.2460 O.3     1  UNL1       -0.3819
     34 H         145.0353  143.3766  169.4422 H       1  UNL1        0.2104
@<TRIPOS>BOND
     1    29    30    1
     2    30    31    1
     3    30    32    1
     4    32    33    1
     5    30    28    1
     6    28     1    1
     7     1     2   ar
     8     2     3   ar
     9     3     9    1
    10     9    10   ar
    11    10    11   ar
    12    11    12   ar
    13    12    13   ar
    14    13    14   ar
    15    14    19    1
    16    19    20    1
    17    20    21    1
    18    21    22    1
    19    14    15   ar
    20    15    16   ar
    21    16    17   ar
    22    17    18   ar
    23     3     4   ar
    24     4    23    1
    25    23    24   am
    26    23    25    2
    27     4     5   ar
    28     5     6    1
    29     5     1   ar
    30    18     9   ar
    31    17    12   ar
    32    22    20    1
    33    33    34    1
    34    24    26    1
    35    24    27    1
    36     6     7    1
    37     6     8    1
@<TRIPOS>MOLECULE
*****
 34 37 0 0 0
SMALL
GASTEIGER

@<TRIPOS>ATOM
      1 N         141.9571  139.7044  167.6887 N.ar    1  UNL1       -0.2380
      2 N         141.2015  140.6314  166.7835 N.ar    1  UNL1       -0.1680
      3 C         141.7453  140.4689  165.3950 C.ar    1  UNL1        0.1079
      4 C         142.8370  139.4414  165.4421 C.ar    1  UNL1        0.1031
      5 C         142.9680  138.9689  166.8597 C.ar    1  UNL1        0.1281
      6 N         143.9393  137.9413  167.3604 N.pl3   1  UNL1       -0.3427
      7 H         144.5671  137.5117  166.7354 H       1  UNL1        0.1437
      8 H         143.9489  137.6964  168.3139 H       1  UNL1        0.1437
      9 C         141.2791  141.2047  164.1737 C.ar    1  UNL1        0.0196
     10 C         140.5089  140.4801  163.1099 C.ar    1  UNL1        0.0016
     11 C         140.0428  141.2160  161.8888 C.ar    1  UNL1        0.0001
     12 C         140.3468  142.6764  161.7315 C.ar    1  UNL1        0.0030
     13 C         139.8806  143.4122  160.5102 C.ar    1  UNL1        0.0369
     14 C         140.1847  144.8726  160.3529 C.ar    1  UNL1        0.1384
     15 C         140.9549  145.5972  161.4168 C.ar    1  UNL1        0.0369
     16 C         141.4211  144.8614  162.6380 C.ar    1  UNL1        0.0031
     17 C         141.1170  143.4010  162.7953 C.ar    1  UNL1        0.0002
     18 C         141.5831  142.6651  164.0164 C.ar    1  UNL1        0.0016
     19 O         139.7185  145.6085  159.1318 O.3     1  UNL1       -0.4792
     20 C         140.6483  145.7985  157.9701 C.3     1  UNL1        0.1661
     21 C         140.8657  146.0741  156.5117 C.3     1  UNL1        0.0472
     22 C         142.0413  145.8521  157.4164 C.3     1  UNL1        0.0472
     23 C         143.6543  138.9692  164.2763 C.2     1  UNL1        0.2470
     24 N         145.1110  139.3167  164.1917 N.am    1  UNL1       -0.3252
     25 O         143.0149  138.1494  163.1950 O.2     1  UNL1       -0.2702
     26 H         145.5308  139.8548  164.9014 H       1  UNL1        0.1453
     27 H         145.6474  139.0068  163.4265 H       1  UNL1        0.1453
     28 C         141.7401  139.5414  169.1639 C.3     1  UNL1        0.1311
     29 C         143.1366  140.9741  169.8693 C.3     1  UNL1        0.0045
     30 C         141.6643  140.7502  170.0489 C.3     1  UNL1        0.0497
     31 C         140.1921  140.5263  170.2285 C.3     1  UNL1        0.0045
     32 C         141.5885  141.9590  170.9339 C.3     1  UNL1        0.1389
     33 O         140.5503  142.0337  172.0140 O.3     1  UNL1       -0.3819
     34 H         139.6681  142.0708  171.6125 H       1  UNL1        0.2104
@<TRIPOS>BOND
     1    29    30    1
     2    30    31    1
     3    30    32    1
     4    32    33    1
     5    30    28    1
     6    28     1    1
     7     1     2   ar
     8     2     3   ar
     9     3     9    1
    10     9    10   ar
    11    10    11   ar
    12    11    12   ar
    13    12    13   ar
    14    13    14   ar
    15    14    19    1
    16    19    20    1
    17    20    21    1
    18    21    22    1
    19    14    15   ar
    20    15    16   ar
    21    16    17   ar
    22    17    18   ar
    23     3     4   ar
    24     4    23    1
    25    23    24   am
    26    23    25    2
    27     4     5   ar
    28     5     6    1
    29     5     1   ar
    30    18     9   ar
    31    17    12   ar
    32    22    20    1
    33    33    34    1
    34    24    26    1
    35    24    27    1
    36     6     7    1
    37     6     8    1
@<TRIPOS>MOLECULE
*****
 34 37 0 0 0
SMALL
GASTEIGER

@<TRIPOS>ATOM
      1 N         140.9535  140.2613  167.6492 N.ar    1  UNL1       -0.2380
      2 N         140.6663  140.1420  166.1818 N.ar    1  UNL1       -0.1680
      3 C         141.7948  139.3832  165.5488 C.ar    1  UNL1        0.1079
      4 C         142.7795  139.0336  166.6249 C.ar    1  UNL1        0.1031
      5 C         142.2596  139.5763  167.9231 C.ar    1  UNL1        0.1281
      6 N         142.9283  139.4552  169.2603 N.pl3   1  UNL1       -0.3427
      7 H         143.7892  138.9842  169.3393 H       1  UNL1        0.1437
      8 H         142.5063  139.8467  170.0590 H       1  UNL1        0.1437
      9 C         141.9172  139.0352  164.0948 C.ar    1  UNL1        0.0196
     10 C         141.2345  137.8130  163.5561 C.ar    1  UNL1        0.0016
     11 C         141.3568  137.4650  162.1022 C.ar    1  UNL1        0.0001
     12 C         142.1619  138.3392  161.1870 C.ar    1  UNL1        0.0030
     13 C         142.2842  137.9912  159.7330 C.ar    1  UNL1        0.0369
     14 C         143.0892  138.8654  158.8177 C.ar    1  UNL1        0.1384
     15 C         143.7719  140.0876  159.3565 C.ar    1  UNL1        0.0369
     16 C         143.6496  140.4356  160.8104 C.ar    1  UNL1        0.0031
     17 C         142.8446  139.5614  161.7256 C.ar    1  UNL1        0.0002
     18 C         142.7222  139.9094  163.1795 C.ar    1  UNL1        0.0016
     19 O         143.2116  138.5174  157.3638 O.3     1  UNL1       -0.4792
     20 C         142.8145  137.1531  156.8832 C.3     1  UNL1        0.1661
     21 C         143.0463  135.6716  156.8425 C.3     1  UNL1        0.0472
     22 C         141.8950  136.2715  156.0913 C.3     1  UNL1        0.0472
     23 C         144.0594  138.2745  166.4362 C.2     1  UNL1        0.2470
     24 N         145.0449  138.7131  165.3938 N.am    1  UNL1       -0.3252
     25 O         144.3539  137.0768  167.2899 O.2     1  UNL1       -0.2702
     26 H         144.8516  139.4992  164.8335 H       1  UNL1        0.1453
     27 H         145.8849  138.2148  165.2700 H       1  UNL1        0.1453
     28 C         140.0869  140.9456  168.6644 C.3     1  UNL1        0.1311
     29 C         140.5775  142.8783  167.9407 C.3     1  UNL1        0.0045
     30 C         140.5393  142.2302  169.2930 C.3     1  UNL1        0.0497
     31 C         140.5011  141.5821  170.6451 C.3     1  UNL1        0.0045
     32 C         140.9917  143.5149  169.9215 C.3     1  UNL1        0.1389
     33 O         139.9876  144.5727  170.2718 O.3     1  UNL1       -0.3819
     34 H         139.5882  144.9212  169.4594 H       1  UNL1        0.2104
@<TRIPOS>BOND
     1    29    30    1
     2    30    31    1
     3    30    32    1
     4    32    33    1
     5    30    28    1
     6    28     1    1
     7     1     2   ar
     8     2     3   ar
     9     3     9    1
    10     9    10   ar
    11    10    11   ar
    12    11    12   ar
    13    12    13   ar
    14    13    14   ar
    15    14    19    1
    16    19    20    1
    17    20    21    1
    18    21    22    1
    19    14    15   ar
    20    15    16   ar
    21    16    17   ar
    22    17    18   ar
    23     3     4   ar
    24     4    23    1
    25    23    24   am
    26    23    25    2
    27     4     5   ar
    28     5     6    1
    29     5     1   ar
    30    18     9   ar
    31    17    12   ar
    32    22    20    1
    33    33    34    1
    34    24    26    1
    35    24    27    1
    36     6     7    1
    37     6     8    1
@<TRIPOS>MOLECULE
*****
 34 37 0 0 0
SMALL
GASTEIGER

@<TRIPOS>ATOM
      1 N         140.6545  140.8686  168.4008 N.ar    1  UNL1       -0.2380
      2 N         141.4796  141.1753  167.1863 N.ar    1  UNL1       -0.1680
      3 C         140.8202  140.5310  166.0030 C.ar    1  UNL1        0.1079
      4 C         139.5875  139.8261  166.4863 C.ar    1  UNL1        0.1031
      5 C         139.4851  140.0347  167.9681 C.ar    1  UNL1        0.1281
      6 N         138.4032  139.5028  168.8607 N.pl3   1  UNL1       -0.3427
      7 H         137.6734  138.9621  168.4811 H       1  UNL1        0.1437
      8 H         138.4230  139.6946  169.8262 H       1  UNL1        0.1437
      9 C         141.3079  140.5826  164.5854 C.ar    1  UNL1        0.0196
     10 C         140.9056  141.7205  163.6948 C.ar    1  UNL1        0.0016
     11 C         141.3934  141.7720  162.2773 C.ar    1  UNL1        0.0001
     12 C         142.2833  140.6856  161.7504 C.ar    1  UNL1        0.0030
     13 C         142.7710  140.7372  160.3327 C.ar    1  UNL1        0.0369
     14 C         143.6610  139.6508  159.8058 C.ar    1  UNL1        0.1384
     15 C         144.0633  138.5128  160.6965 C.ar    1  UNL1        0.0369
     16 C         143.5756  138.4613  162.1141 C.ar    1  UNL1        0.0031
     17 C         142.6856  139.5477  162.6410 C.ar    1  UNL1        0.0002
     18 C         142.1979  139.4961  164.0585 C.ar    1  UNL1        0.0016
     19 O         144.1487  139.7023  158.3883 O.3     1  UNL1       -0.4792
     20 C         144.4413  141.0246  157.7433 C.3     1  UNL1        0.1661
     21 C         145.4278  142.0650  157.3026 C.3     1  UNL1        0.0472
     22 C         143.9613  142.2745  157.0671 C.3     1  UNL1        0.0472
     23 C         138.6261  139.0489  165.6368 C.2     1  UNL1        0.2470
     24 N         138.4016  137.5896  165.9014 N.am    1  UNL1       -0.3252
     25 O         137.8890  139.7311  164.5226 O.2     1  UNL1       -0.2702
     26 H         138.8853  137.1419  166.6327 H       1  UNL1        0.1453
     27 H         137.7705  137.0796  165.3439 H       1  UNL1        0.1453
     28 C         140.9473  141.3171  169.8019 C.3     1  UNL1        0.1311
     29 C         141.4239  143.3788  169.9508 C.3     1  UNL1        0.0045
     30 C         142.1935  142.0993  170.0941 C.3     1  UNL1        0.0497
     31 C         142.9630  140.8198  170.2373 C.3     1  UNL1        0.0045
     32 C         143.4396  142.8815  170.3862 C.3     1  UNL1        0.1389
     33 O         143.3781  144.0829  171.2822 O.3     1  UNL1       -0.3819
     34 H         142.8473  144.7754  170.8585 H       1  UNL1        0.2104
@<TRIPOS>BOND
     1    29    30    1
     2    30    31    1
     3    30    32    1
     4    32    33    1
     5    30    28    1
     6    28     1    1
     7     1     2   ar
     8     2     3   ar
     9     3     9    1
    10     9    10   ar
    11    10    11   ar
    12    11    12   ar
    13    12    13   ar
    14    13    14   ar
    15    14    19    1
    16    19    20    1
    17    20    21    1
    18    21    22    1
    19    14    15   ar
    20    15    16   ar
    21    16    17   ar
    22    17    18   ar
    23     3     4   ar
    24     4    23    1
    25    23    24   am
    26    23    25    2
    27     4     5   ar
    28     5     6    1
    29     5     1   ar
    30    18     9   ar
    31    17    12   ar
    32    22    20    1
    33    33    34    1
    34    24    26    1
    35    24    27    1
    36     6     7    1
    37     6     8    1
@<TRIPOS>MOLECULE
*****
 34 37 0 0 0
SMALL
GASTEIGER

@<TRIPOS>ATOM
      1 N         140.5653  140.5185  168.1583 N.ar    1  UNL1       -0.2380
      2 N         139.8358  140.3620  166.8570 N.ar    1  UNL1       -0.1680
      3 C         140.7428  139.6468  165.9001 C.ar    1  UNL1        0.1079
      4 C         142.0330  139.3612  166.6099 C.ar    1  UNL1        0.1031
      5 C         141.9233  139.8999  168.0055 C.ar    1  UNL1        0.1281
      6 N         142.9852  139.8319  169.0628 N.pl3   1  UNL1       -0.3427
      7 H         143.8492  139.4031  168.8659 H       1  UNL1        0.1437
      8 H         142.8181  140.2162  169.9537 H       1  UNL1        0.1437
      9 C         140.4169  139.2814  164.4822 C.ar    1  UNL1        0.0196
     10 C         140.0860  137.8612  164.1308 C.ar    1  UNL1        0.0016
     11 C         139.7601  137.4958  162.7130 C.ar    1  UNL1        0.0001
     12 C         139.7651  138.5507  161.6466 C.ar    1  UNL1        0.0030
     13 C         139.4391  138.1852  160.2287 C.ar    1  UNL1        0.0369
     14 C         139.4441  139.2400  159.1623 C.ar    1  UNL1        0.1384
     15 C         139.7751  140.6603  159.5137 C.ar    1  UNL1        0.0369
     16 C         140.1010  141.0257  160.9315 C.ar    1  UNL1        0.0031
     17 C         140.0960  139.9708  161.9979 C.ar    1  UNL1        0.0002
     18 C         140.4219  140.3362  163.4158 C.ar    1  UNL1        0.0016
     19 O         139.1182  138.8747  157.7444 O.3     1  UNL1       -0.4792
     20 C         140.1505  138.2054  156.8861 C.3     1  UNL1        0.1661
     21 C         141.2260  138.2892  155.8439 C.3     1  UNL1        0.0472
     22 C         140.8627  136.9623  156.4418 C.3     1  UNL1        0.0472
     23 C         143.2238  138.6600  166.0266 C.2     1  UNL1        0.2470
     24 N         143.5579  138.8310  164.5744 N.am    1  UNL1       -0.3252
     25 O         144.0805  137.7877  166.8956 O.2     1  UNL1       -0.2702
     26 H         142.9956  139.4034  164.0040 H       1  UNL1        0.1453
     27 H         144.3395  138.3707  164.1916 H       1  UNL1        0.1453
     28 C         140.0308  141.1777  169.3951 C.3     1  UNL1        0.1311
     29 C         140.7564  142.0623  171.1814 C.3     1  UNL1        0.0045
     30 C         140.5099  142.5452  169.7829 C.3     1  UNL1        0.0497
     31 C         140.2634  143.0281  168.3844 C.3     1  UNL1        0.0045
     32 C         140.9890  143.9127  170.1706 C.3     1  UNL1        0.1389
     33 O         139.9988  145.0119  170.4185 O.3     1  UNL1       -0.3819
     34 H         139.5423  145.2285  169.5905 H       1  UNL1        0.2104
@<TRIPOS>BOND
     1    29    30    1
     2    30    31    1
     3    30    32    1
     4    32    33    1
     5    30    28    1
     6    28     1    1
     7     1     2   ar
     8     2     3   ar
     9     3     9    1
    10     9    10   ar
    11    10    11   ar
    12    11    12   ar
    13    12    13   ar
    14    13    14   ar
    15    14    19    1
    16    19    20    1
    17    20    21    1
    18    21    22    1
    19    14    15   ar
    20    15    16   ar
    21    16    17   ar
    22    17    18   ar
    23     3     4   ar
    24     4    23    1
    25    23    24   am
    26    23    25    2
    27     4     5   ar
    28     5     6    1
    29     5     1   ar
    30    18     9   ar
    31    17    12   ar
    32    22    20    1
    33    33    34    1
    34    24    26    1
    35    24    27    1
    36     6     7    1
    37     6     8    1
