@<TRIPOS>MOLECULE
*****
 46 49 0 0 0
SMALL
GASTEIGER

@<TRIPOS>ATOM
      1 C         143.9608  143.0965  161.6120 C.2     1  UNL1        0.2490
      2 O         144.7708  144.2373  162.1527 O.2     1  UNL1       -0.2699
      3 N         143.4991  142.0033  162.5295 N.am    1  UNL1       -0.2743
      4 C         142.6891  140.8624  161.9887 C.3     1  UNL1        0.1152
      5 C         142.2274  139.7693  162.9062 C.3     1  UNL1        0.1149
      6 N         142.5757  139.8170  164.3644 N.am    1  UNL1       -0.2761
      7 C         142.1139  138.7237  165.2819 C.2     1  UNL1        0.2257
      8 O         142.4622  138.7714  166.7402 O.2     1  UNL1       -0.2749
      9 C         143.3856  140.9578  164.9052 C.3     1  UNL1        0.1132
     10 C         143.8474  142.0510  163.9877 C.3     1  UNL1        0.0955
     11 C         144.6574  143.1918  164.5284 C.3     1  UNL1        0.0233
     12 C         142.9160  142.9535  157.2373 C.ar    1  UNL1        0.1306
     13 C         142.1629  143.8665  158.1588 C.ar    1  UNL1        0.0110
     14 C         142.5112  143.9142  159.6170 C.ar    1  UNL1        0.0032
     15 C         143.6125  143.0488  160.1538 C.ar    1  UNL1        0.0532
     16 C         144.3656  142.1358  159.2322 C.ar    1  UNL1        0.0032
     17 C         144.0173  142.0882  157.7740 C.ar    1  UNL1        0.0110
     18 C         141.0614  144.7319  157.6221 C.3     1  UNL1        0.0218
     19 C         142.0241  145.8744  157.4884 C.3     1  UNL1        0.0045
     20 C         140.0987  143.5894  157.7558 C.3     1  UNL1        0.0045
     21 C         139.9600  145.5972  157.0855 C.3     1  UNL1        0.0045
     22 C         144.7705  141.1751  156.8525 C.3     1  UNL1        0.0218
     23 C         143.6756  140.1563  156.9672 C.3     1  UNL1        0.0045
     24 C         145.8654  142.1939  156.7378 C.3     1  UNL1        0.0045
     25 C         145.5236  140.2621  155.9310 C.3     1  UNL1        0.0045
     26 C         143.2639  143.8164  154.8115 C.3     1  UNL1        0.2524
     27 O         142.5677  142.9059  155.7791 O.3     1  UNL1       -0.4721
     28 C         141.3039  137.5829  164.7412 C.3     1  UNL1        0.0853
     29 C         139.8073  137.6149  164.8354 C.3     1  UNL1        0.0096
     30 C         139.0410  138.7478  164.2193 C.3     1  UNL1        0.0012
     31 C         138.3222  139.7308  165.0950 C.3     1  UNL1        0.0087
     32 C         139.0132  140.9867  165.5368 C.3     1  UNL1        0.0446
     33 C         139.7208  141.0280  166.8588 C.ar    1  UNL1       -0.0183
     34 C         140.7077  142.1201  167.1474 C.ar    1  UNL1       -0.0017
     35 C         141.4154  142.1614  168.4695 C.ar    1  UNL1        0.0293
     36 C         141.1361  141.1106  169.5028 C.ar    1  UNL1        0.1401
     37 F         141.8436  141.1519  170.8247 F       1  UNL1       -0.2042
     38 C         140.1491  140.0185  169.2141 C.ar    1  UNL1        0.0293
     39 C         139.4415  139.9772  167.8922 C.ar    1  UNL1       -0.0017
     40 C         138.9966  142.2013  164.6568 C.ar    1  UNL1       -0.0183
     41 C         137.7444  143.0171  164.5279 C.ar    1  UNL1       -0.0017
     42 C         137.7278  144.2317  163.6479 C.ar    1  UNL1        0.0293
     43 C         138.9634  144.6305  162.8967 C.ar    1  UNL1        0.1401
     44 F         138.9467  145.8451  162.0166 F       1  UNL1       -0.2042
     45 C         140.2156  143.8147  163.0255 C.ar    1  UNL1        0.0293
     46 C         140.2322  142.6001  163.9056 C.ar    1  UNL1       -0.0017
@<TRIPOS>BOND
     1    26    27    1
     2    27    12    1
     3    12    13   ar
     4    13    18    1
     5    18    19    1
     6    18    20    1
     7    18    21    1
     8    13    14   ar
     9    14    15   ar
    10    15     1    1
    11     1     2    2
    12     1     3   am
    13     3     4    1
    14     4     5    1
    15     5     6    1
    16     6     7   am
    17     7     8    2
    18     7    28    1
    19    28    29    1
    20    29    30    1
    21    30    31    1
    22    31    32    1
    23    32    33    1
    24    33    34   ar
    25    34    35   ar
    26    35    36   ar
    27    36    37    1
    28    36    38   ar
    29    38    39   ar
    30    32    40    1
    31    40    41   ar
    32    41    42   ar
    33    42    43   ar
    34    43    44    1
    35    43    45   ar
    36    45    46   ar
    37     6     9    1
    38     9    10    1
    39    10    11    1
    40    15    16   ar
    41    16    17   ar
    42    17    22    1
    43    22    23    1
    44    22    24    1
    45    22    25    1
    46    17    12   ar
    47    10     3    1
    48    39    33   ar
    49    46    40   ar
@<TRIPOS>MOLECULE
*****
 46 49 0 0 0
SMALL
GASTEIGER

@<TRIPOS>ATOM
      1 C         143.9436  143.0927  161.6125 C.2     1  UNL1        0.2490
      2 O         144.7443  144.2383  162.1570 O.2     1  UNL1       -0.2699
      3 N         143.4840  141.9969  162.5279 N.am    1  UNL1       -0.2743
      4 C         142.6832  140.8513  161.9833 C.3     1  UNL1        0.1152
      5 C         142.2236  139.7555  162.8987 C.3     1  UNL1        0.1149
      6 N         142.5646  139.8053  164.3586 N.am    1  UNL1       -0.2761
      7 C         142.1049  138.7094  165.2739 C.2     1  UNL1        0.2257
      8 O         142.4460  138.7591  166.7338 O.2     1  UNL1       -0.2749
      9 C         143.3653  140.9508  164.9031 C.3     1  UNL1        0.1132
     10 C         143.8250  142.0467  163.9877 C.3     1  UNL1        0.0955
     11 C         144.6257  143.1922  164.5322 C.3     1  UNL1        0.0233
     12 C         142.9205  142.9434  157.2329 C.ar    1  UNL1        0.1306
     13 C         142.1547  143.8487  158.1516 C.ar    1  UNL1        0.0110
     14 C         142.4957  143.8984  159.6114 C.ar    1  UNL1        0.0032
     15 C         143.6026  143.0430  160.1526 C.ar    1  UNL1        0.0532
     16 C         144.3684  142.1377  159.2340 C.ar    1  UNL1        0.0032
     17 C         144.0274  142.0880  157.7741 C.ar    1  UNL1        0.0110
     18 C         141.0478  144.7042  157.6104 C.3     1  UNL1        0.0218
     19 C         141.9988  145.8578  157.4888 C.3     1  UNL1        0.0045
     20 C         140.0968  143.5507  157.7320 C.3     1  UNL1        0.0045
     21 C         139.9409  145.5597  157.0692 C.3     1  UNL1        0.0045
     22 C         144.7933  141.1826  156.8554 C.3     1  UNL1        0.0218
     23 C         143.6969  140.1631  156.9461 C.3     1  UNL1        0.0045
     24 C         145.8897  142.2022  156.7647 C.3     1  UNL1        0.0045
     25 C         145.5591  140.2773  155.9368 C.3     1  UNL1        0.0045
     26 C         143.2817  143.8017  154.8074 C.3     1  UNL1        0.2524
     27 O         142.5795  142.8937  155.7730 O.3     1  UNL1       -0.4721
     28 C         141.3042  137.5638  164.7294 C.3     1  UNL1        0.0853
     29 C         139.8066  137.5905  164.8096 C.3     1  UNL1        0.0096
     30 C         139.0431  138.7294  164.2012 C.3     1  UNL1        0.0012
     31 C         138.3206  139.7040  165.0833 C.3     1  UNL1        0.0087
     32 C         139.0025  140.9655  165.5232 C.3     1  UNL1        0.0446
     33 C         138.9784  142.1782  164.6406 C.ar    1  UNL1       -0.0183
     34 C         137.7716  143.0689  164.6226 C.ar    1  UNL1       -0.0017
     35 C         137.7475  144.2815  163.7399 C.ar    1  UNL1        0.0293
     36 C         138.9303  144.6034  162.8753 C.ar    1  UNL1        0.1401
     37 F         138.9062  145.8159  161.9926 F       1  UNL1       -0.2042
     38 C         140.1371  143.7126  162.8933 C.ar    1  UNL1        0.0293
     39 C         140.1611  142.5000  163.7759 C.ar    1  UNL1       -0.0017
     40 C         139.7084  141.0145  166.8458 C.ar    1  UNL1       -0.0183
     41 C         139.4355  139.9639  167.8810 C.ar    1  UNL1       -0.0017
     42 C         140.1415  140.0129  169.2036 C.ar    1  UNL1        0.0293
     43 C         141.1203  141.1125  169.4910 C.ar    1  UNL1        0.1401
     44 F         141.8262  141.1615  170.8136 F       1  UNL1       -0.2042
     45 C         141.3933  142.1632  168.4558 C.ar    1  UNL1        0.0293
     46 C         140.6873  142.1142  167.1332 C.ar    1  UNL1       -0.0017
@<TRIPOS>BOND
     1    26    27    1
     2    27    12    1
     3    12    13   ar
     4    13    18    1
     5    18    19    1
     6    18    20    1
     7    18    21    1
     8    13    14   ar
     9    14    15   ar
    10    15     1    1
    11     1     2    2
    12     1     3   am
    13     3     4    1
    14     4     5    1
    15     5     6    1
    16     6     7   am
    17     7     8    2
    18     7    28    1
    19    28    29    1
    20    29    30    1
    21    30    31    1
    22    31    32    1
    23    32    33    1
    24    33    34   ar
    25    34    35   ar
    26    35    36   ar
    27    36    37    1
    28    36    38   ar
    29    38    39   ar
    30    32    40    1
    31    40    41   ar
    32    41    42   ar
    33    42    43   ar
    34    43    44    1
    35    43    45   ar
    36    45    46   ar
    37     6     9    1
    38     9    10    1
    39    10    11    1
    40    15    16   ar
    41    16    17   ar
    42    17    22    1
    43    22    23    1
    44    22    24    1
    45    22    25    1
    46    17    12   ar
    47    10     3    1
    48    39    33   ar
    49    46    40   ar
@<TRIPOS>MOLECULE
*****
 46 49 0 0 0
SMALL
GASTEIGER

@<TRIPOS>ATOM
      1 C         143.9526  143.0826  161.6075 C.2     1  UNL1        0.2490
      2 O         144.7636  144.2219  162.1500 O.2     1  UNL1       -0.2699
      3 N         143.4854  141.9913  162.5244 N.am    1  UNL1       -0.2743
      4 C         142.6744  140.8519  161.9819 C.3     1  UNL1        0.1152
      5 C         142.2071  139.7606  162.8988 C.3     1  UNL1        0.1149
      6 N         142.5509  139.8085  164.3581 N.am    1  UNL1       -0.2761
      7 C         142.0837  138.7171  165.2749 C.2     1  UNL1        0.2257
      8 O         142.4275  138.7650  166.7342 O.2     1  UNL1       -0.2749
      9 C         143.3619  140.9478  164.9005 C.3     1  UNL1        0.1132
     10 C         143.8292  142.0392  163.9836 C.3     1  UNL1        0.0955
     11 C         144.6402  143.1785  164.5261 C.3     1  UNL1        0.0233
     12 C         142.9212  142.9388  157.2297 C.ar    1  UNL1        0.1306
     13 C         144.0305  142.0843  157.7673 C.ar    1  UNL1        0.0110
     14 C         144.3743  142.1322  159.2266 C.ar    1  UNL1        0.0032
     15 C         143.6088  143.0347  160.1482 C.ar    1  UNL1        0.0532
     16 C         142.4995  143.8892  159.6106 C.ar    1  UNL1        0.0032
     17 C         142.1557  143.8413  158.1513 C.ar    1  UNL1        0.0110
     18 C         144.7961  141.1817  156.8457 C.3     1  UNL1        0.0218
     19 C         143.7068  140.1554  156.9458 C.3     1  UNL1        0.0045
     20 C         145.8854  142.2080  156.7456 C.3     1  UNL1        0.0045
     21 C         145.5617  140.2792  155.9241 C.3     1  UNL1        0.0045
     22 C         141.0463  144.6959  157.6137 C.3     1  UNL1        0.0218
     23 C         141.9964  145.8498  157.4875 C.3     1  UNL1        0.0045
     24 C         140.0963  143.5421  157.7398 C.3     1  UNL1        0.0045
     25 C         139.9370  145.5505  157.0761 C.3     1  UNL1        0.0045
     26 C         143.2897  143.7881  154.8022 C.3     1  UNL1        0.2524
     27 O         142.5774  142.8909  155.7704 O.3     1  UNL1       -0.4721
     28 C         141.2727  137.5778  164.7325 C.3     1  UNL1        0.0853
     29 C         139.7772  137.6008  164.8464 C.3     1  UNL1        0.0096
     30 C         138.9942  138.7158  164.2188 C.3     1  UNL1        0.0012
     31 C         138.2809  139.7113  165.0849 C.3     1  UNL1        0.0087
     32 C         138.9813  140.9640  165.5207 C.3     1  UNL1        0.0446
     33 C         139.6970  141.0034  166.8385 C.ar    1  UNL1       -0.0183
     34 C         139.4120  139.9606  167.8782 C.ar    1  UNL1       -0.0017
     35 C         140.1277  140.0000  169.1960 C.ar    1  UNL1        0.0293
     36 C         141.1284  141.0823  169.4738 C.ar    1  UNL1        0.1401
     37 F         141.8440  141.1218  170.7915 F       1  UNL1       -0.2042
     38 C         141.4134  142.1252  168.4340 C.ar    1  UNL1        0.0293
     39 C         140.6977  142.0857  167.1163 C.ar    1  UNL1       -0.0017
     40 C         138.9661  142.1773  164.6390 C.ar    1  UNL1       -0.0183
     41 C         137.7599  143.0685  164.6101 C.ar    1  UNL1       -0.0017
     42 C         137.7447  144.2818  163.7284 C.ar    1  UNL1        0.0293
     43 C         138.9357  144.6040  162.8754 C.ar    1  UNL1        0.1401
     44 F         138.9205  145.8174  161.9936 F       1  UNL1       -0.2042
     45 C         140.1420  143.7129  162.9042 C.ar    1  UNL1        0.0293
     46 C         140.1572  142.4995  163.7859 C.ar    1  UNL1       -0.0017
@<TRIPOS>BOND
     1    26    27    1
     2    27    12    1
     3    12    13   ar
     4    13    18    1
     5    18    19    1
     6    18    20    1
     7    18    21    1
     8    13    14   ar
     9    14    15   ar
    10    15     1    1
    11     1     2    2
    12     1     3   am
    13     3     4    1
    14     4     5    1
    15     5     6    1
    16     6     7   am
    17     7     8    2
    18     7    28    1
    19    28    29    1
    20    29    30    1
    21    30    31    1
    22    31    32    1
    23    32    33    1
    24    33    34   ar
    25    34    35   ar
    26    35    36   ar
    27    36    37    1
    28    36    38   ar
    29    38    39   ar
    30    32    40    1
    31    40    41   ar
    32    41    42   ar
    33    42    43   ar
    34    43    44    1
    35    43    45   ar
    36    45    46   ar
    37     6     9    1
    38     9    10    1
    39    10    11    1
    40    15    16   ar
    41    16    17   ar
    42    17    22    1
    43    22    23    1
    44    22    24    1
    45    22    25    1
    46    17    12   ar
    47    10     3    1
    48    39    33   ar
    49    46    40   ar
@<TRIPOS>MOLECULE
*****
 46 49 0 0 0
SMALL
GASTEIGER

@<TRIPOS>ATOM
      1 C         143.9261  143.1311  161.6380 C.2     1  UNL1        0.2490
      2 O         144.7147  144.2863  162.1798 O.2     1  UNL1       -0.2699
      3 N         143.4813  142.0308  162.5553 N.am    1  UNL1       -0.2743
      4 C         142.6926  140.8755  162.0135 C.3     1  UNL1        0.1152
      5 C         142.2478  139.7752  162.9308 C.3     1  UNL1        0.1149
      6 N         142.5916  139.8301  164.3898 N.am    1  UNL1       -0.2761
      7 C         142.1467  138.7297  165.3071 C.2     1  UNL1        0.2257
      8 O         142.4905  138.7846  166.7661 O.2     1  UNL1       -0.2749
      9 C         143.3802  140.9853  164.9316 C.3     1  UNL1        0.1132
     10 C         143.8251  142.0857  164.0143 C.3     1  UNL1        0.0955
     11 C         144.6137  143.2409  164.5561 C.3     1  UNL1        0.0233
     12 C         142.8948  142.9664  157.2609 C.ar    1  UNL1        0.1306
     13 C         144.0021  142.1122  157.8031 C.ar    1  UNL1        0.0110
     14 C         144.3459  142.1671  159.2622 C.ar    1  UNL1        0.0032
     15 C         143.5823  143.0762  160.1790 C.ar    1  UNL1        0.0532
     16 C         142.4750  143.9303  159.6367 C.ar    1  UNL1        0.0032
     17 C         142.1312  143.8754  158.1776 C.ar    1  UNL1        0.0110
     18 C         144.7658  141.2031  156.8864 C.3     1  UNL1        0.0218
     19 C         143.6611  140.1919  156.9689 C.3     1  UNL1        0.0045
     20 C         145.8705  142.2144  156.8039 C.3     1  UNL1        0.0045
     21 C         145.5295  140.2941  155.9696 C.3     1  UNL1        0.0045
     22 C         141.0237  144.7296  157.6354 C.3     1  UNL1        0.0218
     23 C         140.0625  143.5906  157.8043 C.3     1  UNL1        0.0045
     24 C         141.9850  145.8687  157.4665 C.3     1  UNL1        0.0045
     25 C         139.9163  145.5838  157.0932 C.3     1  UNL1        0.0045
     26 C         143.2662  143.8012  154.8288 C.3     1  UNL1        0.2524
     27 O         142.5510  142.9115  155.8018 O.3     1  UNL1       -0.4721
     28 C         141.3581  137.5745  164.7653 C.3     1  UNL1        0.0853
     29 C         139.8596  137.5943  164.8281 C.3     1  UNL1        0.0096
     30 C         139.0966  138.7129  164.1826 C.3     1  UNL1        0.0012
     31 C         138.3407  139.6924  165.0306 C.3     1  UNL1        0.0087
     32 C         139.0039  140.9582  165.4862 C.3     1  UNL1        0.0446
     33 C         138.9742  142.1771  164.6123 C.ar    1  UNL1       -0.0183
     34 C         137.7746  143.0774  164.6214 C.ar    1  UNL1       -0.0017
     35 C         137.7449  144.2962  163.7475 C.ar    1  UNL1        0.0293
     36 C         138.9149  144.6146  162.8644 C.ar    1  UNL1        0.1401
     37 F         138.8852  145.8334  161.9905 F       1  UNL1       -0.2042
     38 C         140.1146  143.7142  162.8553 C.ar    1  UNL1        0.0293
     39 C         140.1442  142.4955  163.7292 C.ar    1  UNL1       -0.0017
     40 C         139.6969  141.0054  166.8157 C.ar    1  UNL1       -0.0183
     41 C         139.4215  139.9477  167.8429 C.ar    1  UNL1       -0.0017
     42 C         140.1144  139.9948  169.1724 C.ar    1  UNL1        0.0293
     43 C         141.0828  141.0997  169.4747 C.ar    1  UNL1        0.1401
     44 F         141.7758  141.1469  170.8042 F       1  UNL1       -0.2042
     45 C         141.3583  142.1575  168.4474 C.ar    1  UNL1        0.0293
     46 C         140.6653  142.1104  167.1179 C.ar    1  UNL1       -0.0017
@<TRIPOS>BOND
     1    26    27    1
     2    27    12    1
     3    12    13   ar
     4    13    18    1
     5    18    19    1
     6    18    20    1
     7    18    21    1
     8    13    14   ar
     9    14    15   ar
    10    15     1    1
    11     1     2    2
    12     1     3   am
    13     3     4    1
    14     4     5    1
    15     5     6    1
    16     6     7   am
    17     7     8    2
    18     7    28    1
    19    28    29    1
    20    29    30    1
    21    30    31    1
    22    31    32    1
    23    32    33    1
    24    33    34   ar
    25    34    35   ar
    26    35    36   ar
    27    36    37    1
    28    36    38   ar
    29    38    39   ar
    30    32    40    1
    31    40    41   ar
    32    41    42   ar
    33    42    43   ar
    34    43    44    1
    35    43    45   ar
    36    45    46   ar
    37     6     9    1
    38     9    10    1
    39    10    11    1
    40    15    16   ar
    41    16    17   ar
    42    17    22    1
    43    22    23    1
    44    22    24    1
    45    22    25    1
    46    17    12   ar
    47    10     3    1
    48    39    33   ar
    49    46    40   ar
@<TRIPOS>MOLECULE
*****
 46 49 0 0 0
SMALL
GASTEIGER

@<TRIPOS>ATOM
      1 C         139.9105  143.8940  163.9996 C.2     1  UNL1        0.2490
      2 O         138.9288  145.0133  164.1816 O.2     1  UNL1       -0.2699
      3 N         140.7133  143.7985  162.7362 N.am    1  UNL1       -0.2743
      4 C         141.6951  142.6790  162.5542 C.3     1  UNL1        0.1152
      5 C         142.4980  142.5836  161.2908 C.3     1  UNL1        0.1149
      6 N         142.3191  143.6074  160.2093 N.am    1  UNL1       -0.2761
      7 C         143.1220  143.5119  158.9458 C.2     1  UNL1        0.2257
      8 O         142.9431  144.5358  157.8643 O.2     1  UNL1       -0.2749
      9 C         141.3373  144.7268  160.3912 C.3     1  UNL1        0.1132
     10 C         140.5344  144.8224  161.6547 C.3     1  UNL1        0.0955
     11 C         139.5527  145.9417  161.8366 C.3     1  UNL1        0.0233
     12 C         140.4472  140.8223  167.2441 C.ar    1  UNL1        0.1306
     13 C         140.9497  142.2212  167.4452 C.ar    1  UNL1        0.0110
     14 C         140.7708  143.2451  166.3637 C.ar    1  UNL1        0.0032
     15 C         140.0894  142.8701  165.0811 C.ar    1  UNL1        0.0532
     16 C         139.5868  141.4712  164.8801 C.ar    1  UNL1        0.0032
     17 C         139.7657  140.4473  165.9616 C.ar    1  UNL1        0.0110
     18 C         141.6311  142.5963  168.7278 C.3     1  UNL1        0.0218
     19 C         140.3784  143.2764  169.1946 C.3     1  UNL1        0.0045
     20 C         142.8839  141.9162  168.2610 C.3     1  UNL1        0.0045
     21 C         142.3126  142.9713  170.0103 C.3     1  UNL1        0.0045
     22 C         139.2632  139.0483  165.7605 C.3     1  UNL1        0.0218
     23 C         140.5697  138.6699  165.1283 C.3     1  UNL1        0.0045
     24 C         137.9566  139.4267  166.3927 C.3     1  UNL1        0.0045
     25 C         138.7607  137.6494  165.5594 C.3     1  UNL1        0.0045
     26 C         139.8030  139.8777  169.5771 C.3     1  UNL1        0.2524
     27 O         140.6260  139.7984  168.3256 O.3     1  UNL1       -0.4721
     28 C         144.1037  142.3925  158.7639 C.3     1  UNL1        0.0853
     29 C         143.6730  141.1175  158.1015 C.3     1  UNL1        0.0096
     30 C         142.6543  141.1510  157.0010 C.3     1  UNL1        0.0012
     31 C         141.2088  140.8952  157.3090 C.3     1  UNL1        0.0087
     32 C         140.7976  139.6097  157.9636 C.3     1  UNL1        0.0446
     33 C         139.9974  139.6364  159.2321 C.ar    1  UNL1       -0.0183
     34 C         139.5373  140.9457  159.8012 C.ar    1  UNL1       -0.0017
     35 C         138.7371  140.9724  161.0697 C.ar    1  UNL1        0.0293
     36 C         138.3971  139.6897  161.7691 C.ar    1  UNL1        0.1401
     37 F         137.5970  139.7163  163.0375 F       1  UNL1       -0.2042
     38 C         138.8573  138.3803  161.1999 C.ar    1  UNL1        0.0293
     39 C         139.6574  138.3537  159.9315 C.ar    1  UNL1       -0.0017
     40 C         141.1866  138.2975  157.3497 C.ar    1  UNL1       -0.0183
     41 C         140.3062  137.6639  156.3136 C.ar    1  UNL1       -0.0017
     42 C         140.6952  136.3517  155.6997 C.ar    1  UNL1        0.0293
     43 C         141.9645  135.6731  156.1219 C.ar    1  UNL1        0.1401
     44 F         142.3535  134.3609  155.5080 F       1  UNL1       -0.2042
     45 C         142.8449  136.3067  157.1580 C.ar    1  UNL1        0.0293
     46 C         142.4560  137.6189  157.7719 C.ar    1  UNL1       -0.0017
@<TRIPOS>BOND
     1    26    27    1
     2    27    12    1
     3    12    13   ar
     4    13    18    1
     5    18    19    1
     6    18    20    1
     7    18    21    1
     8    13    14   ar
     9    14    15   ar
    10    15     1    1
    11     1     2    2
    12     1     3   am
    13     3     4    1
    14     4     5    1
    15     5     6    1
    16     6     7   am
    17     7     8    2
    18     7    28    1
    19    28    29    1
    20    29    30    1
    21    30    31    1
    22    31    32    1
    23    32    33    1
    24    33    34   ar
    25    34    35   ar
    26    35    36   ar
    27    36    37    1
    28    36    38   ar
    29    38    39   ar
    30    32    40    1
    31    40    41   ar
    32    41    42   ar
    33    42    43   ar
    34    43    44    1
    35    43    45   ar
    36    45    46   ar
    37     6     9    1
    38     9    10    1
    39    10    11    1
    40    15    16   ar
    41    16    17   ar
    42    17    22    1
    43    22    23    1
    44    22    24    1
    45    22    25    1
    46    17    12   ar
    47    10     3    1
    48    39    33   ar
    49    46    40   ar
@<TRIPOS>MOLECULE
*****
 46 49 0 0 0
SMALL
GASTEIGER

@<TRIPOS>ATOM
      1 C         140.0939  143.8456  163.8684 C.2     1  UNL1        0.2490
      2 O         139.1631  145.0130  164.0119 O.2     1  UNL1       -0.2699
      3 N         140.9021  143.6804  162.6157 N.am    1  UNL1       -0.2743
      4 C         141.8330  142.5129  162.4721 C.3     1  UNL1        0.1152
      5 C         142.6413  142.3478  161.2194 C.3     1  UNL1        0.1149
      6 N         142.5187  143.3501  160.1102 N.am    1  UNL1       -0.2761
      7 C         143.3271  143.1848  158.8574 C.2     1  UNL1        0.2257
      8 O         143.2046  144.1871  157.7482 O.2     1  UNL1       -0.2749
      9 C         141.5879  144.5175  160.2537 C.3     1  UNL1        0.1132
     10 C         140.7796  144.6827  161.5064 C.3     1  UNL1        0.0955
     11 C         139.8488  145.8502  161.6499 C.3     1  UNL1        0.0233
     12 C         140.4614  140.8387  167.1961 C.ar    1  UNL1        0.1306
     13 C         139.8251  140.4447  165.8962 C.ar    1  UNL1        0.0110
     14 C         139.7026  141.4470  164.7870 C.ar    1  UNL1        0.0032
     15 C         140.2164  142.8433  164.9776 C.ar    1  UNL1        0.0532
     16 C         140.8527  143.2372  166.2775 C.ar    1  UNL1        0.0032
     17 C         140.9752  142.2349  167.3868 C.ar    1  UNL1        0.0110
     18 C         139.3112  139.0484  165.7055 C.3     1  UNL1        0.0218
     19 C         137.9655  139.4743  166.2130 C.3     1  UNL1        0.0045
     20 C         140.6569  138.6225  165.1979 C.3     1  UNL1        0.0045
     21 C         138.7974  137.6522  165.5147 C.3     1  UNL1        0.0045
     22 C         141.6116  142.6290  168.6867 C.3     1  UNL1        0.0218
     23 C         140.3335  143.2884  169.1125 C.3     1  UNL1        0.0045
     24 C         142.8898  141.9695  168.2610 C.3     1  UNL1        0.0045
     25 C         142.2480  143.0230  169.9866 C.3     1  UNL1        0.0045
     26 C         139.6645  139.9106  169.4881 C.3     1  UNL1        0.2524
     27 O         140.5839  139.8364  168.3053 O.3     1  UNL1       -0.4721
     28 C         144.2579  142.0174  158.7139 C.3     1  UNL1        0.0853
     29 C         143.9110  140.8914  157.7857 C.3     1  UNL1        0.0096
     30 C         142.4767  140.5025  157.5813 C.3     1  UNL1        0.0012
     31 C         141.7311  139.7878  158.6691 C.3     1  UNL1        0.0087
     32 C         140.2405  139.6426  158.5862 C.3     1  UNL1        0.0446
     33 C         139.6102  139.0715  157.3506 C.ar    1  UNL1       -0.0183
     34 C         139.8524  137.6387  156.9787 C.ar    1  UNL1       -0.0017
     35 C         139.2220  137.0676  155.7432 C.ar    1  UNL1        0.0293
     36 C         138.3494  137.9294  154.8795 C.ar    1  UNL1        0.1401
     37 F         137.7191  137.3583  153.6440 F       1  UNL1       -0.2042
     38 C         138.1072  139.3623  155.2514 C.ar    1  UNL1        0.0293
     39 C         138.7376  139.9333  156.4869 C.ar    1  UNL1       -0.0017
     40 C         139.3802  140.0685  159.7387 C.ar    1  UNL1       -0.0183
     41 C         139.0607  141.5202  159.9400 C.ar    1  UNL1       -0.0017
     42 C         138.2004  141.9461  161.0925 C.ar    1  UNL1        0.0293
     43 C         137.6595  140.9203  162.0439 C.ar    1  UNL1        0.1401
     44 F         136.7992  141.3462  163.1965 F       1  UNL1       -0.2042
     45 C         137.9789  139.4685  161.8427 C.ar    1  UNL1        0.0293
     46 C         138.8393  139.0426  160.6901 C.ar    1  UNL1       -0.0017
@<TRIPOS>BOND
     1    26    27    1
     2    27    12    1
     3    12    13   ar
     4    13    18    1
     5    18    19    1
     6    18    20    1
     7    18    21    1
     8    13    14   ar
     9    14    15   ar
    10    15     1    1
    11     1     2    2
    12     1     3   am
    13     3     4    1
    14     4     5    1
    15     5     6    1
    16     6     7   am
    17     7     8    2
    18     7    28    1
    19    28    29    1
    20    29    30    1
    21    30    31    1
    22    31    32    1
    23    32    33    1
    24    33    34   ar
    25    34    35   ar
    26    35    36   ar
    27    36    37    1
    28    36    38   ar
    29    38    39   ar
    30    32    40    1
    31    40    41   ar
    32    41    42   ar
    33    42    43   ar
    34    43    44    1
    35    43    45   ar
    36    45    46   ar
    37     6     9    1
    38     9    10    1
    39    10    11    1
    40    15    16   ar
    41    16    17   ar
    42    17    22    1
    43    22    23    1
    44    22    24    1
    45    22    25    1
    46    17    12   ar
    47    10     3    1
    48    39    33   ar
    49    46    40   ar
@<TRIPOS>MOLECULE
*****
 46 49 0 0 0
SMALL
GASTEIGER

@<TRIPOS>ATOM
      1 C         139.4615  143.8274  161.4702 C.2     1  UNL1        0.2490
      2 O         138.9188  145.1680  161.8677 O.2     1  UNL1       -0.2699
      3 N         139.2048  142.6283  162.3340 N.am    1  UNL1       -0.2743
      4 C         139.7475  141.2875  161.9365 C.3     1  UNL1        0.1152
      5 C         139.4907  140.0884  162.8003 C.3     1  UNL1        0.1149
      6 N         138.6913  140.2300  164.0616 N.am    1  UNL1       -0.2761
      7 C         138.4346  139.0308  164.9254 C.2     1  UNL1        0.2257
      8 O         137.6353  139.1724  166.1867 O.2     1  UNL1       -0.2749
      9 C         138.1487  141.5707  164.4591 C.3     1  UNL1        0.1132
     10 C         138.4054  142.7698  163.5953 C.3     1  UNL1        0.0955
     11 C         137.8627  144.1105  163.9928 C.3     1  UNL1        0.0233
     12 C         141.8597  143.4027  157.6862 C.ar    1  UNL1        0.1306
     13 C         140.8636  144.5159  157.8219 C.ar    1  UNL1        0.0110
     14 C         140.0642  144.6575  159.0832 C.ar    1  UNL1        0.0032
     15 C         140.2609  143.6858  160.2088 C.ar    1  UNL1        0.0532
     16 C         141.2569  142.5725  160.0732 C.ar    1  UNL1        0.0032
     17 C         142.0563  142.4310  158.8118 C.ar    1  UNL1        0.0110
     18 C         140.6669  145.4877  156.6962 C.3     1  UNL1        0.0218
     19 C         139.4183  144.7631  156.2888 C.3     1  UNL1        0.0045
     20 C         141.9154  146.2123  157.1037 C.3     1  UNL1        0.0045
     21 C         140.4702  146.4595  155.5707 C.3     1  UNL1        0.0045
     22 C         143.0524  141.3176  158.6762 C.3     1  UNL1        0.0218
     23 C         141.9532  140.3846  158.2628 C.3     1  UNL1        0.0045
     24 C         144.1517  142.2507  159.0895 C.3     1  UNL1        0.0045
     25 C         144.0484  140.2043  158.5405 C.3     1  UNL1        0.0045
     26 C         142.1189  142.4550  155.2811 C.3     1  UNL1        0.2524
     27 O         142.6591  143.2611  156.4249 O.3     1  UNL1       -0.4721
     28 C         138.9773  137.6901  164.5279 C.3     1  UNL1        0.0853
     29 C         140.3374  137.2632  164.9947 C.3     1  UNL1        0.0096
     30 C         141.5634  137.7628  164.2895 C.3     1  UNL1        0.0012
     31 C         142.7106  138.3169  165.0812 C.3     1  UNL1        0.0087
     32 C         142.5895  139.6603  165.7373 C.3     1  UNL1        0.0446
     33 C         143.0694  140.8895  165.0239 C.ar    1  UNL1       -0.0183
     34 C         143.0967  140.9238  163.5245 C.ar    1  UNL1       -0.0017
     35 C         143.5767  142.1529  162.8111 C.ar    1  UNL1        0.0293
     36 C         144.0292  143.3477  163.5970 C.ar    1  UNL1        0.1401
     37 F         144.5091  144.5768  162.8836 F       1  UNL1       -0.2042
     38 C         144.0019  143.3133  165.0964 C.ar    1  UNL1        0.0293
     39 C         143.5220  142.0842  165.8098 C.ar    1  UNL1       -0.0017
     40 C         141.9884  139.7747  167.1069 C.ar    1  UNL1       -0.0183
     41 C         140.6397  140.4068  167.2836 C.ar    1  UNL1       -0.0017
     42 C         140.0387  140.5212  168.6532 C.ar    1  UNL1        0.0293
     43 C         140.7863  140.0034  169.8460 C.ar    1  UNL1        0.1401
     44 F         140.1853  140.1178  171.2155 F       1  UNL1       -0.2042
     45 C         142.1352  139.3713  169.6693 C.ar    1  UNL1        0.0293
     46 C         142.7362  139.2569  168.2997 C.ar    1  UNL1       -0.0017
@<TRIPOS>BOND
     1    26    27    1
     2    27    12    1
     3    12    13   ar
     4    13    18    1
     5    18    19    1
     6    18    20    1
     7    18    21    1
     8    13    14   ar
     9    14    15   ar
    10    15     1    1
    11     1     2    2
    12     1     3   am
    13     3     4    1
    14     4     5    1
    15     5     6    1
    16     6     7   am
    17     7     8    2
    18     7    28    1
    19    28    29    1
    20    29    30    1
    21    30    31    1
    22    31    32    1
    23    32    33    1
    24    33    34   ar
    25    34    35   ar
    26    35    36   ar
    27    36    37    1
    28    36    38   ar
    29    38    39   ar
    30    32    40    1
    31    40    41   ar
    32    41    42   ar
    33    42    43   ar
    34    43    44    1
    35    43    45   ar
    36    45    46   ar
    37     6     9    1
    38     9    10    1
    39    10    11    1
    40    15    16   ar
    41    16    17   ar
    42    17    22    1
    43    22    23    1
    44    22    24    1
    45    22    25    1
    46    17    12   ar
    47    10     3    1
    48    39    33   ar
    49    46    40   ar
@<TRIPOS>MOLECULE
*****
 46 49 0 0 0
SMALL
GASTEIGER

@<TRIPOS>ATOM
      1 C         139.4606  143.8237  161.4701 C.2     1  UNL1        0.2490
      2 O         138.9243  145.1664  161.8693 O.2     1  UNL1       -0.2699
      3 N         139.2021  142.6255  162.3347 N.am    1  UNL1       -0.2743
      4 C         139.7384  141.2827  161.9354 C.3     1  UNL1        0.1152
      5 C         139.4799  140.0846  162.8000 C.3     1  UNL1        0.1149
      6 N         138.6851  140.2292  164.0639 N.am    1  UNL1       -0.2761
      7 C         138.4266  139.0309  164.9285 C.2     1  UNL1        0.2257
      8 O         137.6318  139.1755  166.1924 O.2     1  UNL1       -0.2749
      9 C         138.1488  141.5719  164.4632 C.3     1  UNL1        0.1132
     10 C         138.4073  142.7701  163.5986 C.3     1  UNL1        0.0955
     11 C         137.8710  144.1128  163.9978 C.3     1  UNL1        0.0233
     12 C         141.8449  143.3900  157.6784 C.ar    1  UNL1        0.1306
     13 C         140.8342  144.4907  157.8070 C.ar    1  UNL1        0.0110
     14 C         140.0394  144.6353  159.0709 C.ar    1  UNL1        0.0032
     15 C         140.2554  143.6791  160.2062 C.ar    1  UNL1        0.0532
     16 C         141.2661  142.5783  160.0776 C.ar    1  UNL1        0.0032
     17 C         142.0609  142.4338  158.8137 C.ar    1  UNL1        0.0110
     18 C         140.6181  145.4470  156.6716 C.3     1  UNL1        0.0218
     19 C         141.8590  146.1930  157.0638 C.3     1  UNL1        0.0045
     20 C         139.3773  144.7011  156.2795 C.3     1  UNL1        0.0045
     21 C         140.4020  146.4032  155.5363 C.3     1  UNL1        0.0045
     22 C         143.0718  141.3329  158.6852 C.3     1  UNL1        0.0218
     23 C         144.1586  142.2835  159.0914 C.3     1  UNL1        0.0045
     24 C         141.9849  140.3823  158.2789 C.3     1  UNL1        0.0045
     25 C         144.0826  140.2322  158.5567 C.3     1  UNL1        0.0045
     26 C         142.1018  142.4248  155.2800 C.3     1  UNL1        0.2524
     27 O         142.6397  143.2454  156.4145 O.3     1  UNL1       -0.4721
     28 C         138.9629  137.6882  164.5292 C.3     1  UNL1        0.0853
     29 C         140.3291  137.2625  164.9787 C.3     1  UNL1        0.0096
     30 C         141.5467  137.7839  164.2746 C.3     1  UNL1        0.0012
     31 C         142.6965  138.3289  165.0687 C.3     1  UNL1        0.0087
     32 C         142.5798  139.6675  165.7355 C.3     1  UNL1        0.0446
     33 C         141.9846  139.7722  167.1084 C.ar    1  UNL1       -0.0183
     34 C         142.7455  139.2633  168.2966 C.ar    1  UNL1       -0.0017
     35 C         142.1502  139.3680  169.6695 C.ar    1  UNL1        0.0293
     36 C         140.7940  139.9815  169.8541 C.ar    1  UNL1        0.1401
     37 F         140.1987  140.0863  171.2269 F       1  UNL1       -0.2042
     38 C         140.0330  140.4904  168.6657 C.ar    1  UNL1        0.0293
     39 C         140.6283  140.3857  167.2929 C.ar    1  UNL1       -0.0017
     40 C         143.0584  140.9014  165.0295 C.ar    1  UNL1       -0.0183
     41 C         143.5087  142.0922  165.8225 C.ar    1  UNL1       -0.0017
     42 C         143.9873  143.3261  165.1165 C.ar    1  UNL1        0.0293
     43 C         144.0155  143.3692  163.6174 C.ar    1  UNL1        0.1401
     44 F         144.4941  144.6031  162.9114 F       1  UNL1       -0.2042
     45 C         143.5652  142.1783  162.8243 C.ar    1  UNL1        0.0293
     46 C         143.0866  140.9444  163.5303 C.ar    1  UNL1       -0.0017
@<TRIPOS>BOND
     1    26    27    1
     2    27    12    1
     3    12    13   ar
     4    13    18    1
     5    18    19    1
     6    18    20    1
     7    18    21    1
     8    13    14   ar
     9    14    15   ar
    10    15     1    1
    11     1     2    2
    12     1     3   am
    13     3     4    1
    14     4     5    1
    15     5     6    1
    16     6     7   am
    17     7     8    2
    18     7    28    1
    19    28    29    1
    20    29    30    1
    21    30    31    1
    22    31    32    1
    23    32    33    1
    24    33    34   ar
    25    34    35   ar
    26    35    36   ar
    27    36    37    1
    28    36    38   ar
    29    38    39   ar
    30    32    40    1
    31    40    41   ar
    32    41    42   ar
    33    42    43   ar
    34    43    44    1
    35    43    45   ar
    36    45    46   ar
    37     6     9    1
    38     9    10    1
    39    10    11    1
    40    15    16   ar
    41    16    17   ar
    42    17    22    1
    43    22    23    1
    44    22    24    1
    45    22    25    1
    46    17    12   ar
    47    10     3    1
    48    39    33   ar
    49    46    40   ar
@<TRIPOS>MOLECULE
*****
 46 49 0 0 0
SMALL
GASTEIGER

@<TRIPOS>ATOM
      1 C         139.0554  138.5201  161.0673 C.2     1  UNL1        0.2490
      2 O         137.7960  137.9211  161.6195 O.2     1  UNL1       -0.2699
      3 N         140.2409  138.7301  161.9619 N.am    1  UNL1       -0.2743
      4 C         141.5005  139.3291  161.4097 C.3     1  UNL1        0.1152
      5 C         142.6860  139.5391  162.3042 C.3     1  UNL1        0.1149
      6 N         142.6121  139.1501  163.7510 N.am    1  UNL1       -0.2761
      7 C         143.7978  139.3602  164.6456 C.2     1  UNL1        0.2257
      8 O         143.7239  138.9711  166.0924 O.2     1  UNL1       -0.2749
      9 C         141.3527  138.5511  164.3033 C.3     1  UNL1        0.1132
     10 C         140.1671  138.3411  163.4087 C.3     1  UNL1        0.0955
     11 C         138.9077  137.7421  163.9609 C.3     1  UNL1        0.0233
     12 C         139.2770  139.6871  156.7269 C.ar    1  UNL1        0.1306
     13 C         138.5785  140.5802  157.7090 C.ar    1  UNL1        0.0110
     14 C         138.5047  140.1912  159.1558 C.ar    1  UNL1        0.0032
     15 C         139.1293  138.9091  159.6205 C.ar    1  UNL1        0.0532
     16 C         139.8277  138.0160  158.6385 C.ar    1  UNL1        0.0032
     17 C         139.9016  138.4050  157.1917 C.ar    1  UNL1        0.0110
     18 C         137.9539  141.8624  157.2442 C.3     1  UNL1        0.0218
     19 C         139.1722  142.6167  157.6875 C.3     1  UNL1        0.0045
     20 C         136.7355  141.1081  156.8010 C.3     1  UNL1        0.0045
     21 C         137.3292  143.1445  156.7795 C.3     1  UNL1        0.0045
     22 C         140.6001  137.5118  156.2096 C.3     1  UNL1        0.0218
     23 C         139.2749  136.9788  155.7519 C.3     1  UNL1        0.0045
     24 C         141.9254  138.0449  156.6673 C.3     1  UNL1        0.0045
     25 C         141.2986  136.6187  155.2276 C.3     1  UNL1        0.0045
     26 C         140.5194  140.8697  154.7756 C.3     1  UNL1        0.2524
     27 O         139.3509  140.0761  155.2801 O.3     1  UNL1       -0.4721
     28 C         145.0572  139.9592  164.0934 C.3     1  UNL1        0.0853
     29 C         145.3072  141.4323  164.2245 C.3     1  UNL1        0.0096
     30 C         144.1815  142.4044  164.0299 C.3     1  UNL1        0.0012
     31 C         143.5271  143.0421  165.2195 C.3     1  UNL1        0.0087
     32 C         142.1519  142.6138  165.6382 C.3     1  UNL1        0.0446
     33 C         141.9736  141.7350  166.8407 C.ar    1  UNL1       -0.0183
     34 C         140.7822  140.8288  166.9373 C.ar    1  UNL1       -0.0017
     35 C         140.6039  139.9500  168.1398 C.ar    1  UNL1        0.0293
     36 C         141.6171  139.9774  169.2456 C.ar    1  UNL1        0.1401
     37 F         141.4388  139.0986  170.4481 F       1  UNL1       -0.2042
     38 C         142.8085  140.8836  169.1489 C.ar    1  UNL1        0.0293
     39 C         142.9867  141.7624  167.9465 C.ar    1  UNL1       -0.0017
     40 C         140.9549  143.0644  164.8544 C.ar    1  UNL1       -0.0183
     41 C         140.0624  144.1393  165.4001 C.ar    1  UNL1       -0.0017
     42 C         138.8654  144.5899  164.6163 C.ar    1  UNL1        0.0293
     43 C         138.5610  143.9655  163.2869 C.ar    1  UNL1        0.1401
     44 F         137.3640  144.4160  162.5032 F       1  UNL1       -0.2042
     45 C         139.4535  142.8904  162.7412 C.ar    1  UNL1        0.0293
     46 C         140.6505  142.4399  163.5250 C.ar    1  UNL1       -0.0017
@<TRIPOS>BOND
     1    26    27    1
     2    27    12    1
     3    12    13   ar
     4    13    18    1
     5    18    19    1
     6    18    20    1
     7    18    21    1
     8    13    14   ar
     9    14    15   ar
    10    15     1    1
    11     1     2    2
    12     1     3   am
    13     3     4    1
    14     4     5    1
    15     5     6    1
    16     6     7   am
    17     7     8    2
    18     7    28    1
    19    28    29    1
    20    29    30    1
    21    30    31    1
    22    31    32    1
    23    32    33    1
    24    33    34   ar
    25    34    35   ar
    26    35    36   ar
    27    36    37    1
    28    36    38   ar
    29    38    39   ar
    30    32    40    1
    31    40    41   ar
    32    41    42   ar
    33    42    43   ar
    34    43    44    1
    35    43    45   ar
    36    45    46   ar
    37     6     9    1
    38     9    10    1
    39    10    11    1
    40    15    16   ar
    41    16    17   ar
    42    17    22    1
    43    22    23    1
    44    22    24    1
    45    22    25    1
    46    17    12   ar
    47    10     3    1
    48    39    33   ar
    49    46    40   ar
