@<TRIPOS>MOLECULE
*****
 20 22 0 0 0
SMALL
GASTEIGER

@<TRIPOS>ATOM
      1 N         143.7088  144.0129  171.1841 N.pl3   1  UNL1       -0.3262
      2 C         142.7372  143.0736  170.5331 C.ar    1  UNL1        0.2327
      3 N         141.3540  142.7585  171.0205 N.ar    1  UNL1       -0.1937
      4 C         140.7401  141.7747  170.0690 C.ar    1  UNL1        0.1667
      5 C         139.3969  141.1078  170.0429 C.ar    1  UNL1        0.0389
      6 C         139.0573  140.1480  168.9413 C.ar    1  UNL1        0.0047
      7 C         140.0611  139.8551  167.8658 C.ar    1  UNL1        0.0193
      8 C         141.4044  140.5221  167.8919 C.ar    1  UNL1        0.0853
      9 N         141.7439  141.4819  168.9935 N.ar    1  UNL1       -0.2095
     10 N         142.9781  142.2846  169.2803 N.ar    1  UNL1       -0.1287
     11 H         143.4571  144.4875  172.0091 H       1  UNL1        0.1452
     12 H         144.5982  144.1546  170.7865 H       1  UNL1        0.1452
     13 C         142.4082  140.2292  166.8164 C.ar    1  UNL1        0.0292
     14 C         143.0818  138.8900  166.7637 C.ar    1  UNL1        0.0024
     15 C         144.0855  138.5972  165.6882 C.ar    1  UNL1        0.0010
     16 C         144.4157  139.6435  164.6655 C.ar    1  UNL1        0.0122
     17 C         143.7421  140.9827  164.7182 C.ar    1  UNL1        0.0682
     18 CL        144.0723  142.0291  163.6954 Cl      1  UNL1       -0.0814
     19 C         142.7384  141.2755  165.7937 C.ar    1  UNL1        0.0696
     20 CL        142.0648  142.6148  165.8463 Cl      1  UNL1       -0.0813
@<TRIPOS>BOND
     1     1     2    1
     2     2     3   ar
     3     3     4   ar
     4     4     5   ar
     5     5     6   ar
     6     6     7   ar
     7     7     8   ar
     8     8    13    1
     9    13    14   ar
    10    14    15   ar
    11    15    16   ar
    12    16    17   ar
    13    17    18    1
    14    17    19   ar
    15    19    20    1
    16     8     9   ar
    17     9    10   ar
    18    10     2   ar
    19     9     4   ar
    20    19    13   ar
    21     1    11    1
    22     1    12    1
@<TRIPOS>MOLECULE
*****
 20 22 0 0 0
SMALL
GASTEIGER

@<TRIPOS>ATOM
      1 N         143.4642  139.7880  171.2975 N.pl3   1  UNL1       -0.3262
      2 C         142.5766  139.8461  170.0897 C.ar    1  UNL1        0.2327
      3 N         141.0815  139.7251  170.0876 N.ar    1  UNL1       -0.1937
      4 C         140.6091  139.8396  168.6685 C.ar    1  UNL1        0.1667
      5 C         139.2389  139.7941  168.0600 C.ar    1  UNL1        0.0389
      6 C         139.0718  139.9403  166.5766 C.ar    1  UNL1        0.0047
      7 C         140.2750  140.1321  165.7016 C.ar    1  UNL1        0.0193
      8 C         141.6452  140.1777  166.3101 C.ar    1  UNL1        0.0853
      9 N         141.8123  140.0315  167.7935 N.ar    1  UNL1       -0.2095
     10 N         143.0282  140.0355  168.6719 N.ar    1  UNL1       -0.1287
     11 H         143.0716  139.6599  172.1912 H       1  UNL1        0.1452
     12 H         144.4394  139.8780  171.1965 H       1  UNL1        0.1452
     13 C         142.8484  140.3695  165.4351 C.ar    1  UNL1        0.0292
     14 C         143.7408  139.2055  165.1214 C.ar    1  UNL1        0.0024
     15 C         144.9440  139.3973  164.2464 C.ar    1  UNL1        0.0010
     16 C         145.2547  140.7531  163.6852 C.ar    1  UNL1        0.0122
     17 C         144.3623  141.9172  163.9989 C.ar    1  UNL1        0.0682
     18 CL        144.6730  143.2731  163.4377 Cl      1  UNL1       -0.0814
     19 C         143.1591  141.7254  164.8739 C.ar    1  UNL1        0.0696
     20 CL        142.2667  142.8895  165.1876 Cl      1  UNL1       -0.0813
@<TRIPOS>BOND
     1     1     2    1
     2     2     3   ar
     3     3     4   ar
     4     4     5   ar
     5     5     6   ar
     6     6     7   ar
     7     7     8   ar
     8     8    13    1
     9    13    14   ar
    10    14    15   ar
    11    15    16   ar
    12    16    17   ar
    13    17    18    1
    14    17    19   ar
    15    19    20    1
    16     8     9   ar
    17     9    10   ar
    18    10     2   ar
    19     9     4   ar
    20    19    13   ar
    21     1    11    1
    22     1    12    1
@<TRIPOS>MOLECULE
*****
 20 22 0 0 0
SMALL
GASTEIGER

@<TRIPOS>ATOM
      1 N         137.6437  139.7420  170.6603 N.pl3   1  UNL1       -0.3262
      2 C         138.8214  140.2229  169.8653 C.ar    1  UNL1        0.2327
      3 N         139.8223  141.2496  170.3056 N.ar    1  UNL1       -0.1937
      4 C         140.8244  141.4228  169.2029 C.ar    1  UNL1        0.1667
      5 C         142.0350  142.2991  169.0754 C.ar    1  UNL1        0.0389
      6 C         142.8640  142.2557  167.8260 C.ar    1  UNL1        0.0047
      7 C         142.4824  141.3359  166.7043 C.ar    1  UNL1        0.0193
      8 C         141.2717  140.4596  166.8318 C.ar    1  UNL1        0.0853
      9 N         140.4427  140.5030  168.0811 N.ar    1  UNL1       -0.2095
     10 N         139.2048  139.7615  168.4905 N.ar    1  UNL1       -0.1287
     11 H         137.4742  140.1070  171.5588 H       1  UNL1        0.1452
     12 H         137.0403  139.0614  170.2835 H       1  UNL1        0.1452
     13 C         140.8901  139.5398  165.7100 C.ar    1  UNL1        0.0292
     14 C         141.6962  138.3024  165.4475 C.ar    1  UNL1        0.0024
     15 C         141.3145  137.3826  164.3257 C.ar    1  UNL1        0.0010
     16 C         140.1268  137.7003  163.4665 C.ar    1  UNL1        0.0122
     17 C         139.3207  138.9377  163.7291 C.ar    1  UNL1        0.0682
     18 CL        138.1329  139.2554  162.8698 Cl      1  UNL1       -0.0814
     19 C         139.7023  139.8575  164.8508 C.ar    1  UNL1        0.0696
     20 CL        138.8962  141.0949  165.1133 Cl      1  UNL1       -0.0813
@<TRIPOS>BOND
     1     1     2    1
     2     2     3   ar
     3     3     4   ar
     4     4     5   ar
     5     5     6   ar
     6     6     7   ar
     7     7     8   ar
     8     8    13    1
     9    13    14   ar
    10    14    15   ar
    11    15    16   ar
    12    16    17   ar
    13    17    18    1
    14    17    19   ar
    15    19    20    1
    16     8     9   ar
    17     9    10   ar
    18    10     2   ar
    19     9     4   ar
    20    19    13   ar
    21     1    11    1
    22     1    12    1
@<TRIPOS>MOLECULE
*****
 20 22 0 0 0
SMALL
GASTEIGER

@<TRIPOS>ATOM
      1 N         137.4641  143.8831  162.4893 N.pl3   1  UNL1       -0.3262
      2 C         137.8311  142.4546  162.7625 C.ar    1  UNL1        0.2327
      3 N         137.5385  141.2834  161.8723 N.ar    1  UNL1       -0.1937
      4 C         138.0817  140.0514  162.5335 C.ar    1  UNL1        0.1667
      5 C         138.0853  138.6094  162.1206 C.ar    1  UNL1        0.0389
      6 C         138.7173  137.5772  163.0067 C.ar    1  UNL1        0.0047
      7 C         139.3457  137.9870  164.3056 C.ar    1  UNL1        0.0193
      8 C         139.3421  139.4291  164.7184 C.ar    1  UNL1        0.0853
      9 N         138.7101  140.4612  163.8324 N.ar    1  UNL1       -0.2095
     10 N         138.5552  141.9465  163.9739 N.ar    1  UNL1       -0.1287
     11 H         136.9865  144.1190  161.6613 H       1  UNL1        0.1452
     12 H         137.7009  144.5849  163.1379 H       1  UNL1        0.1452
     13 C         139.9705  139.8389  166.0173 C.ar    1  UNL1        0.0292
     14 C         141.3715  140.3744  166.0367 C.ar    1  UNL1        0.0024
     15 C         141.9999  140.7842  167.3356 C.ar    1  UNL1        0.0010
     16 C         141.2272  140.6586  168.6151 C.ar    1  UNL1        0.0122
     17 C         139.8262  140.1232  168.5958 C.ar    1  UNL1        0.0682
     18 CL        139.0535  139.9975  169.8753 Cl      1  UNL1       -0.0814
     19 C         139.1979  139.7133  167.2969 C.ar    1  UNL1        0.0696
     20 CL        137.7968  139.1778  167.2775 Cl      1  UNL1       -0.0813
@<TRIPOS>BOND
     1     1     2    1
     2     2     3   ar
     3     3     4   ar
     4     4     5   ar
     5     5     6   ar
     6     6     7   ar
     7     7     8   ar
     8     8    13    1
     9    13    14   ar
    10    14    15   ar
    11    15    16   ar
    12    16    17   ar
    13    17    18    1
    14    17    19   ar
    15    19    20    1
    16     8     9   ar
    17     9    10   ar
    18    10     2   ar
    19     9     4   ar
    20    19    13   ar
    21     1    11    1
    22     1    12    1
@<TRIPOS>MOLECULE
*****
 20 22 0 0 0
SMALL
GASTEIGER

@<TRIPOS>ATOM
      1 N         137.4535  144.2468  162.7009 N.pl3   1  UNL1       -0.3262
      2 C         137.7993  142.8094  162.9542 C.ar    1  UNL1        0.2327
      3 N         137.5364  141.6622  162.0243 N.ar    1  UNL1       -0.1937
      4 C         138.0434  140.4106  162.6773 C.ar    1  UNL1        0.1667
      5 C         138.0548  138.9789  162.2299 C.ar    1  UNL1        0.0389
      6 C         138.6424  137.9209  163.1161 C.ar    1  UNL1        0.0047
      7 C         139.2186  138.2946  164.4497 C.ar    1  UNL1        0.0193
      8 C         139.2072  139.7263  164.8970 C.ar    1  UNL1        0.0853
      9 N         138.6196  140.7842  164.0109 N.ar    1  UNL1       -0.2095
     10 N         138.4688  142.2668  164.1820 N.ar    1  UNL1       -0.1287
     11 H         137.0125  144.5062  161.8598 H       1  UNL1        0.1452
     12 H         137.6675  144.9310  163.3757 H       1  UNL1        0.1452
     13 C         139.7835  140.0999  166.2306 C.ar    1  UNL1        0.0292
     14 C         139.0596  139.7291  167.4909 C.ar    1  UNL1        0.0024
     15 C         139.6358  140.1027  168.8244 C.ar    1  UNL1        0.0010
     16 C         140.9359  140.8473  168.8977 C.ar    1  UNL1        0.0122
     17 C         141.6597  141.2182  167.6374 C.ar    1  UNL1        0.0682
     18 CL        142.9599  141.9627  167.7106 Cl      1  UNL1       -0.0814
     19 C         141.0835  140.8445  166.3038 C.ar    1  UNL1        0.0696
     20 CL        141.8075  141.2154  165.0435 Cl      1  UNL1       -0.0813
@<TRIPOS>BOND
     1     1     2    1
     2     2     3   ar
     3     3     4   ar
     4     4     5   ar
     5     5     6   ar
     6     6     7   ar
     7     7     8   ar
     8     8    13    1
     9    13    14   ar
    10    14    15   ar
    11    15    16   ar
    12    16    17   ar
    13    17    18    1
    14    17    19   ar
    15    19    20    1
    16     8     9   ar
    17     9    10   ar
    18    10     2   ar
    19     9     4   ar
    20    19    13   ar
    21     1    11    1
    22     1    12    1
@<TRIPOS>MOLECULE
*****
 20 22 0 0 0
SMALL
GASTEIGER

@<TRIPOS>ATOM
      1 N         139.9665  145.0622  170.3639 N.pl3   1  UNL1       -0.3262
      2 C         140.5423  143.7126  170.0522 C.ar    1  UNL1        0.2327
      3 N         141.5673  142.9816  170.8676 N.ar    1  UNL1       -0.1937
      4 C         141.8527  141.6743  170.1897 C.ar    1  UNL1        0.1667
      5 C         142.7757  140.5441  170.5370 C.ar    1  UNL1        0.0389
      6 C         142.8500  139.3369  169.6498 C.ar    1  UNL1        0.0047
      7 C         142.0013  139.2600  168.4153 C.ar    1  UNL1        0.0193
      8 C         141.0783  140.3902  168.0681 C.ar    1  UNL1        0.0853
      9 N         141.0040  141.5974  168.9553 N.ar    1  UNL1       -0.2095
     10 N         140.1942  142.8571  168.8703 N.ar    1  UNL1       -0.1287
     11 H         140.2599  145.5488  171.1679 H       1  UNL1        0.1452
     12 H         139.2951  145.4613  169.7646 H       1  UNL1        0.1452
     13 C         140.2297  140.3133  166.8336 C.ar    1  UNL1        0.0292
     14 C         138.9565  139.5204  166.8470 C.ar    1  UNL1        0.0024
     15 C         138.1078  139.4434  165.6126 C.ar    1  UNL1        0.0010
     16 C         138.5323  140.1594  164.3648 C.ar    1  UNL1        0.0122
     17 C         139.8056  140.9522  164.3514 C.ar    1  UNL1        0.0682
     18 CL        140.2302  141.6682  163.1035 Cl      1  UNL1       -0.0814
     19 C         140.6542  141.0292  165.5858 C.ar    1  UNL1        0.0696
     20 CL        141.9275  141.8221  165.5724 Cl      1  UNL1       -0.0813
@<TRIPOS>BOND
     1     1     2    1
     2     2     3   ar
     3     3     4   ar
     4     4     5   ar
     5     5     6   ar
     6     6     7   ar
     7     7     8   ar
     8     8    13    1
     9    13    14   ar
    10    14    15   ar
    11    15    16   ar
    12    16    17   ar
    13    17    18    1
    14    17    19   ar
    15    19    20    1
    16     8     9   ar
    17     9    10   ar
    18    10     2   ar
    19     9     4   ar
    20    19    13   ar
    21     1    11    1
    22     1    12    1
@<TRIPOS>MOLECULE
*****
 20 22 0 0 0
SMALL
GASTEIGER

@<TRIPOS>ATOM
      1 N         137.2068  139.5038  161.3762 N.pl3   1  UNL1       -0.3262
      2 C         137.8034  140.5167  162.3079 C.ar    1  UNL1        0.2327
      3 N         137.1035  141.7194  162.8679 N.ar    1  UNL1       -0.1937
      4 C         138.0720  142.4509  163.7493 C.ar    1  UNL1        0.1667
      5 C         137.9393  143.7035  164.5638 C.ar    1  UNL1        0.0389
      6 C         139.1052  144.2054  165.3630 C.ar    1  UNL1        0.0047
      7 C         140.4038  143.4547  165.3477 C.ar    1  UNL1        0.0193
      8 C         140.5365  142.2021  164.5332 C.ar    1  UNL1        0.0853
      9 N         139.3706  141.7002  163.7340 N.ar    1  UNL1       -0.2095
     10 N         139.2045  140.5049  162.8432 N.ar    1  UNL1       -0.1287
     11 H         136.2730  139.5980  161.0791 H       1  UNL1        0.1452
     12 H         137.7492  138.7447  161.0618 H       1  UNL1        0.1452
     13 C         141.8350  141.4515  164.5180 C.ar    1  UNL1        0.0292
     14 C         142.9623  141.9205  163.6467 C.ar    1  UNL1        0.0024
     15 C         144.2609  141.1699  163.6314 C.ar    1  UNL1        0.0010
     16 C         144.4322  139.9501  164.4875 C.ar    1  UNL1        0.0122
     17 C         143.3049  139.4811  165.3588 C.ar    1  UNL1        0.0682
     18 CL        143.4762  138.2613  166.2149 Cl      1  UNL1       -0.0814
     19 C         142.0063  140.2317  165.3740 C.ar    1  UNL1        0.0696
     20 CL        140.8791  139.7626  166.2454 Cl      1  UNL1       -0.0813
@<TRIPOS>BOND
     1     1     2    1
     2     2     3   ar
     3     3     4   ar
     4     4     5   ar
     5     5     6   ar
     6     6     7   ar
     7     7     8   ar
     8     8    13    1
     9    13    14   ar
    10    14    15   ar
    11    15    16   ar
    12    16    17   ar
    13    17    18    1
    14    17    19   ar
    15    19    20    1
    16     8     9   ar
    17     9    10   ar
    18    10     2   ar
    19     9     4   ar
    20    19    13   ar
    21     1    11    1
    22     1    12    1
@<TRIPOS>MOLECULE
*****
 20 22 0 0 0
SMALL
GASTEIGER

@<TRIPOS>ATOM
      1 N         142.3451  137.5829  161.2092 N.pl3   1  UNL1       -0.3262
      2 C         141.3704  137.9440  162.2906 C.ar    1  UNL1        0.2327
      3 N         140.7961  137.0049  163.3095 N.ar    1  UNL1       -0.1937
      4 C         139.8696  137.7880  164.1917 C.ar    1  UNL1        0.1667
      5 C         139.0246  137.3891  165.3651 C.ar    1  UNL1        0.0389
      6 C         138.1813  138.4134  166.0648 C.ar    1  UNL1        0.0047
      7 C         138.1830  139.8367  165.5911 C.ar    1  UNL1        0.0193
      8 C         139.0279  140.2356  164.4177 C.ar    1  UNL1        0.0853
      9 N         139.8712  139.2113  163.7180 N.ar    1  UNL1       -0.2095
     10 N         140.7988  139.3077  162.5431 N.ar    1  UNL1       -0.1287
     11 H         142.6640  136.6555  161.1235 H       1  UNL1        0.1452
     12 H         142.6659  138.2734  160.5850 H       1  UNL1        0.1452
     13 C         139.0296  141.6588  163.9440 C.ar    1  UNL1        0.0292
     14 C         137.8680  142.1886  163.1566 C.ar    1  UNL1        0.0024
     15 C         137.8696  143.6118  162.6829 C.ar    1  UNL1        0.0010
     16 C         139.0329  144.5053  162.9966 C.ar    1  UNL1        0.0122
     17 C         140.1945  143.9756  163.7839 C.ar    1  UNL1        0.0682
     18 CL        141.3579  144.8691  164.0976 Cl      1  UNL1       -0.0814
     19 C         140.1929  142.5523  164.2576 C.ar    1  UNL1        0.0696
     20 CL        141.3546  142.0226  165.0450 Cl      1  UNL1       -0.0813
@<TRIPOS>BOND
     1     1     2    1
     2     2     3   ar
     3     3     4   ar
     4     4     5   ar
     5     5     6   ar
     6     6     7   ar
     7     7     8   ar
     8     8    13    1
     9    13    14   ar
    10    14    15   ar
    11    15    16   ar
    12    16    17   ar
    13    17    18    1
    14    17    19   ar
    15    19    20    1
    16     8     9   ar
    17     9    10   ar
    18    10     2   ar
    19     9     4   ar
    20    19    13   ar
    21     1    11    1
    22     1    12    1
@<TRIPOS>MOLECULE
*****
 20 22 0 0 0
SMALL
GASTEIGER

@<TRIPOS>ATOM
      1 N         143.6036  139.5118  171.0996 N.pl3   1  UNL1       -0.3262
      2 C         142.6262  139.6442  169.9695 C.ar    1  UNL1        0.2327
      3 N         141.1312  139.6393  170.0917 N.ar    1  UNL1       -0.1937
      4 C         140.5531  139.7968  168.7166 C.ar    1  UNL1        0.1667
      5 C         139.1378  139.8603  168.2240 C.ar    1  UNL1        0.0389
      6 C         138.8602  140.0261  166.7593 C.ar    1  UNL1        0.0047
      7 C         139.9979  140.1283  165.7872 C.ar    1  UNL1        0.0193
      8 C         141.4133  140.0647  166.2797 C.ar    1  UNL1        0.0853
      9 N         141.6909  139.8990  167.7444 N.ar    1  UNL1       -0.2095
     10 N         142.9721  139.8047  168.5188 N.ar    1  UNL1       -0.1287
     11 H         143.2777  139.4103  172.0230 H       1  UNL1        0.1452
     12 H         144.5711  139.5265  170.9179 H       1  UNL1        0.1452
     13 C         142.5511  140.1670  165.3076 C.ar    1  UNL1        0.0292
     14 C         143.4996  141.3265  165.3824 C.ar    1  UNL1        0.0024
     15 C         144.6374  141.4287  164.4103 C.ar    1  UNL1        0.0010
     16 C         144.8266  140.3714  163.3633 C.ar    1  UNL1        0.0122
     17 C         143.8780  139.2119  163.2885 C.ar    1  UNL1        0.0682
     18 CL        144.0672  138.1545  162.2414 Cl      1  UNL1       -0.0814
     19 C         142.7402  139.1097  164.2606 C.ar    1  UNL1        0.0696
     20 CL        141.7916  137.9500  164.1857 Cl      1  UNL1       -0.0813
@<TRIPOS>BOND
     1     1     2    1
     2     2     3   ar
     3     3     4   ar
     4     4     5   ar
     5     5     6   ar
     6     6     7   ar
     7     7     8   ar
     8     8    13    1
     9    13    14   ar
    10    14    15   ar
    11    15    16   ar
    12    16    17   ar
    13    17    18    1
    14    17    19   ar
    15    19    20    1
    16     8     9   ar
    17     9    10   ar
    18    10     2   ar
    19     9     4   ar
    20    19    13   ar
    21     1    11    1
    22     1    12    1
