@<TRIPOS>MOLECULE
*****
 34 37 0 0 0
SMALL
GASTEIGER

@<TRIPOS>ATOM
      1 C         138.8383  140.0752  169.0808 C.ar    1  UNL1        0.3086
      2 N         137.7059  139.0917  169.0960 N.ar    1  UNL1       -0.0923
      3 N         137.5496  138.5432  167.7086 N.ar    1  UNL1       -0.1058
      4 C         138.5854  139.1878  166.8359 C.ar    1  UNL1        0.2512
      5 O         139.3818  140.1347  167.6840 O.2     1  UNL1       -0.4048
      6 C         138.7890  138.9307  165.3722 C.ar    1  UNL1        0.0553
      7 C         138.1823  139.8534  164.3572 C.ar    1  UNL1        0.0060
      8 C         138.3859  139.5963  162.8935 C.ar    1  UNL1        0.0148
      9 C         139.1963  138.4165  162.4449 C.ar    1  UNL1        0.0505
     10 C         139.8031  137.4938  163.4600 C.ar    1  UNL1        0.0148
     11 C         139.5995  137.7509  164.9237 C.ar    1  UNL1        0.0060
     12 N         139.4000  138.1594  160.9811 N.am    1  UNL1       -0.2803
     13 C         140.5841  138.7489  160.2738 C.2     1  UNL1        0.2517
     14 O         141.5645  139.5955  161.0301 O.2     1  UNL1       -0.2697
     15 H         138.7565  137.6037  160.4847 H       1  UNL1        0.1552
     16 C         140.7878  138.4917  158.8101 C.ar    1  UNL1        0.0811
     17 C         139.6714  138.7471  157.8414 C.ar    1  UNL1        0.0068
     18 C         139.8749  138.4900  156.3777 C.ar    1  UNL1        0.0003
     19 C         141.1949  137.9775  155.8827 C.ar    1  UNL1        0.0023
     20 C         142.3113  137.7222  156.8515 C.ar    1  UNL1        0.0298
     21 C         142.1078  137.9793  158.3152 C.ar    1  UNL1        0.1445
     22 F         143.2241  137.7240  159.2839 F       1  UNL1       -0.2040
     23 N         139.3392  140.8614  170.2560 N.pl3   1  UNL1       -0.2871
     24 H         139.0707  140.6075  171.1685 H       1  UNL1        0.1512
     25 C         140.2491  142.0344  170.0408 C.3     1  UNL1        0.0925
     26 C         141.5494  142.1210  170.7835 C.3     1  UNL1        0.0386
     27 C         142.8151  141.6393  170.1385 C.3     1  UNL1        0.0739
     28 C         142.7302  139.6547  164.4769 C.3     1  UNL1        0.0897
     29 N         142.7514  140.1508  165.8923 N.3     1  UNL1       -0.2691
     30 C         142.6606  139.1773  167.0298 C.3     1  UNL1        0.0897
     31 C         142.6818  139.6735  168.4452 C.3     1  UNL1        0.0897
     32 N         142.7938  141.1432  168.7231 N.3     1  UNL1       -0.2703
     33 C         142.8847  142.1167  167.5857 C.3     1  UNL1        0.0897
     34 C         142.8634  141.6206  166.1703 C.3     1  UNL1        0.0897
@<TRIPOS>BOND
     1    28    29    1
     2    29    30    1
     3    30    31    1
     4    31    32    1
     5    32    27    1
     6    27    26    1
     7    26    25    1
     8    25    23    1
     9    23     1    1
    10     1     2   ar
    11     2     3   ar
    12     3     4   ar
    13     4     6    1
    14     6     7   ar
    15     7     8   ar
    16     8     9   ar
    17     9    12    1
    18    12    13   am
    19    13    14    2
    20    13    16    1
    21    16    17   ar
    22    17    18   ar
    23    18    19   ar
    24    19    20   ar
    25    20    21   ar
    26    21    22    1
    27     9    10   ar
    28    10    11   ar
    29     4     5   ar
    30    32    33    1
    31    33    34    1
    32    34    29    1
    33     5     1   ar
    34    11     6   ar
    35    21    16   ar
    36    23    24    1
    37    12    15    1
@<TRIPOS>MOLECULE
*****
 34 37 0 0 0
SMALL
GASTEIGER

@<TRIPOS>ATOM
      1 C         141.1699  145.9823  157.5733 C.ar    1  UNL1        0.3086
      2 N         142.4497  145.2060  157.6714 N.ar    1  UNL1       -0.0923
      3 N         142.4793  144.5280  159.0091 N.ar    1  UNL1       -0.1058
      4 C         141.2177  144.8851  159.7377 C.ar    1  UNL1        0.2512
      5 O         140.4085  145.7839  158.8504 O.2     1  UNL1       -0.4048
      6 C         140.8329  144.4244  161.1124 C.ar    1  UNL1        0.0553
      7 C         140.2931  145.4069  162.1089 C.ar    1  UNL1        0.0060
      8 C         139.9083  144.9461  163.4835 C.ar    1  UNL1        0.0148
      9 C         140.0633  143.5029  163.8616 C.ar    1  UNL1        0.0505
     10 C         140.6031  142.5203  162.8649 C.ar    1  UNL1        0.0148
     11 C         140.9879  142.9811  161.4903 C.ar    1  UNL1        0.0060
     12 N         139.6784  143.0421  165.2363 N.am    1  UNL1       -0.2803
     13 C         140.7412  142.6729  166.2284 C.2     1  UNL1        0.2517
     14 O         142.1887  142.7645  165.8459 O.2     1  UNL1       -0.2697
     15 H         138.7284  142.9819  165.4873 H       1  UNL1        0.1552
     16 C         140.3564  142.2121  167.6029 C.ar    1  UNL1        0.0811
     17 C         140.4351  143.1615  168.7616 C.ar    1  UNL1        0.0068
     18 C         140.0503  142.7008  170.1363 C.ar    1  UNL1        0.0003
     19 C         139.5867  141.2907  170.3522 C.ar    1  UNL1        0.0023
     20 C         139.5079  140.3413  169.1936 C.ar    1  UNL1        0.0298
     21 C         139.8928  140.8020  167.8189 C.ar    1  UNL1        0.1445
     22 F         139.8140  139.8527  166.6603 F       1  UNL1       -0.2040
     23 N         140.7290  146.8112  156.4035 N.pl3   1  UNL1       -0.2871
     24 H         141.3774  147.0643  155.7072 H       1  UNL1        0.1512
     25 C         139.3001  147.2547  156.2947 C.3     1  UNL1        0.0925
     26 C         138.9161  148.3102  155.3005 C.3     1  UNL1        0.0386
     27 C         138.5431  149.6844  155.7720 C.3     1  UNL1        0.0739
     28 C         141.1384  154.5056  153.3182 C.3     1  UNL1        0.0897
     29 N         140.4895  153.3003  153.9317 N.3     1  UNL1       -0.2691
     30 C         141.2377  152.0024  154.0069 C.3     1  UNL1        0.0897
     31 C         140.5889  150.7971  154.6203 C.3     1  UNL1        0.0897
     32 N         139.1919  150.8897  155.1586 N.3     1  UNL1       -0.2703
     33 C         138.4437  152.1876  155.0834 C.3     1  UNL1        0.0897
     34 C         139.0925  153.3929  154.4699 C.3     1  UNL1        0.0897
@<TRIPOS>BOND
     1    28    29    1
     2    29    30    1
     3    30    31    1
     4    31    32    1
     5    32    27    1
     6    27    26    1
     7    26    25    1
     8    25    23    1
     9    23     1    1
    10     1     2   ar
    11     2     3   ar
    12     3     4   ar
    13     4     6    1
    14     6     7   ar
    15     7     8   ar
    16     8     9   ar
    17     9    12    1
    18    12    13   am
    19    13    14    2
    20    13    16    1
    21    16    17   ar
    22    17    18   ar
    23    18    19   ar
    24    19    20   ar
    25    20    21   ar
    26    21    22    1
    27     9    10   ar
    28    10    11   ar
    29     4     5   ar
    30    32    33    1
    31    33    34    1
    32    34    29    1
    33     5     1   ar
    34    11     6   ar
    35    21    16   ar
    36    23    24    1
    37    12    15    1
@<TRIPOS>MOLECULE
*****
 34 37 0 0 0
SMALL
GASTEIGER

@<TRIPOS>ATOM
      1 C         141.7249  145.5711  158.0354 C.ar    1  UNL1        0.3086
      2 N         140.3222  146.0251  158.3115 N.ar    1  UNL1       -0.0923
      3 N         139.9483  145.5641  159.6891 N.ar    1  UNL1       -0.1058
      4 C         141.1200  144.8251  160.2644 C.ar    1  UNL1        0.2512
      5 O         142.2180  144.8294  159.2424 O.2     1  UNL1       -0.4048
      6 C         141.1827  144.1927  161.6232 C.ar    1  UNL1        0.0553
      7 C         141.4713  142.7268  161.7556 C.ar    1  UNL1        0.0060
      8 C         141.5340  142.0945  163.1143 C.ar    1  UNL1        0.0148
      9 C         141.3082  142.9282  164.3406 C.ar    1  UNL1        0.0505
     10 C         141.0196  144.3942  164.2082 C.ar    1  UNL1        0.0148
     11 C         140.9569  145.0265  162.8495 C.ar    1  UNL1        0.0060
     12 N         141.3709  142.2959  165.6995 N.am    1  UNL1       -0.2803
     13 C         142.6970  142.0854  166.3683 C.2     1  UNL1        0.2517
     14 O         143.9603  142.5071  165.6782 O.2     1  UNL1       -0.2697
     15 H         140.5418  142.0190  166.1524 H       1  UNL1        0.1552
     16 C         142.7597  141.4531  167.7270 C.ar    1  UNL1        0.0811
     17 C         143.2250  142.2547  168.9064 C.ar    1  UNL1        0.0068
     18 C         143.2877  141.6225  170.2652 C.ar    1  UNL1        0.0003
     19 C         142.8852  140.1887  170.4446 C.ar    1  UNL1        0.0023
     20 C         142.4199  139.3871  169.2652 C.ar    1  UNL1        0.0298
     21 C         142.3571  140.0193  167.9064 C.ar    1  UNL1        0.1445
     22 F         141.8919  139.2178  166.7270 F       1  UNL1       -0.2040
     23 N         142.4987  145.8157  156.7739 N.pl3   1  UNL1       -0.2871
     24 H         143.2179  146.4878  156.7601 H       1  UNL1        0.1512
     25 C         142.1765  145.0363  155.5334 C.3     1  UNL1        0.0925
     26 C         141.4354  145.6928  154.4065 C.3     1  UNL1        0.0386
     27 C         140.0131  146.1290  154.5977 C.3     1  UNL1        0.0739
     28 C         138.6765  151.9723  154.8608 C.3     1  UNL1        0.0897
     29 N         139.0107  150.5115  154.7950 N.3     1  UNL1       -0.2691
     30 C         138.5397  149.5849  155.8765 C.3     1  UNL1        0.0897
     31 C         138.8738  148.1241  155.8107 C.3     1  UNL1        0.0897
     32 N         139.6789  147.5898  154.6634 N.3     1  UNL1       -0.2703
     33 C         140.1499  148.5164  153.5820 C.3     1  UNL1        0.0897
     34 C         139.8158  149.9772  153.6478 C.3     1  UNL1        0.0897
@<TRIPOS>BOND
     1    28    29    1
     2    29    30    1
     3    30    31    1
     4    31    32    1
     5    32    27    1
     6    27    26    1
     7    26    25    1
     8    25    23    1
     9    23     1    1
    10     1     2   ar
    11     2     3   ar
    12     3     4   ar
    13     4     6    1
    14     6     7   ar
    15     7     8   ar
    16     8     9   ar
    17     9    12    1
    18    12    13   am
    19    13    14    2
    20    13    16    1
    21    16    17   ar
    22    17    18   ar
    23    18    19   ar
    24    19    20   ar
    25    20    21   ar
    26    21    22    1
    27     9    10   ar
    28    10    11   ar
    29     4     5   ar
    30    32    33    1
    31    33    34    1
    32    34    29    1
    33     5     1   ar
    34    11     6   ar
    35    21    16   ar
    36    23    24    1
    37    12    15    1
@<TRIPOS>MOLECULE
*****
 34 37 0 0 0
SMALL
GASTEIGER

@<TRIPOS>ATOM
      1 C         141.2643  145.7271  158.1912 C.ar    1  UNL1        0.3086
      2 N         142.5043  144.8841  158.1478 N.ar    1  UNL1       -0.0923
      3 N         142.6162  144.1565  159.4547 N.ar    1  UNL1       -0.1058
      4 C         141.4454  144.5499  160.3059 C.ar    1  UNL1        0.2512
      5 O         140.6099  145.5205  159.5250 O.2     1  UNL1       -0.4048
      6 C         141.1602  144.0588  161.6943 C.ar    1  UNL1        0.0553
      7 C         140.9873  145.0395  162.8159 C.ar    1  UNL1        0.0060
      8 C         140.7021  144.5485  164.2043 C.ar    1  UNL1        0.0148
      9 C         140.5897  143.0766  164.4709 C.ar    1  UNL1        0.0505
     10 C         140.7625  142.0959  163.3491 C.ar    1  UNL1        0.0148
     11 C         141.0478  142.5869  161.9608 C.ar    1  UNL1        0.0060
     12 N         140.3044  142.5855  165.8593 N.am    1  UNL1       -0.2803
     13 C         141.4242  142.0843  166.7224 C.2     1  UNL1        0.2517
     14 O         142.8292  142.0743  166.1971 O.2     1  UNL1       -0.2697
     15 H         139.3823  142.5921  166.2040 H       1  UNL1        0.1552
     16 C         141.1390  141.5932  168.1106 C.ar    1  UNL1        0.0811
     17 C         141.5279  140.2001  168.5080 C.ar    1  UNL1        0.0068
     18 C         141.2426  139.7089  169.8963 C.ar    1  UNL1        0.0003
     19 C         140.5685  140.6109  170.8872 C.ar    1  UNL1        0.0023
     20 C         140.1796  142.0040  170.4898 C.ar    1  UNL1        0.0298
     21 C         140.4648  142.4952  169.1015 C.ar    1  UNL1        0.1445
     22 F         140.0759  143.8883  168.7042 F       1  UNL1       -0.2040
     23 N         140.7663  146.6199  157.0936 N.pl3   1  UNL1       -0.2871
     24 H         141.2398  147.4581  156.8877 H       1  UNL1        0.1512
     25 C         139.5466  146.2356  156.3095 C.3     1  UNL1        0.0925
     26 C         139.0866  147.0945  155.1690 C.3     1  UNL1        0.0386
     27 C         140.0278  148.0838  154.5482 C.3     1  UNL1        0.0739
     28 C         138.1479  153.6464  153.3137 C.3     1  UNL1        0.0897
     29 N         138.6179  152.2557  153.6223 N.3     1  UNL1       -0.2691
     30 C         139.2112  151.4065  152.5376 C.3     1  UNL1        0.0897
     31 C         139.6812  150.0159  152.8462 C.3     1  UNL1        0.0897
     32 N         139.5578  149.4745  154.2396 N.3     1  UNL1       -0.2703
     33 C         138.9645  150.3237  155.3243 C.3     1  UNL1        0.0897
     34 C         138.4946  151.7143  155.0157 C.3     1  UNL1        0.0897
@<TRIPOS>BOND
     1    28    29    1
     2    29    30    1
     3    30    31    1
     4    31    32    1
     5    32    27    1
     6    27    26    1
     7    26    25    1
     8    25    23    1
     9    23     1    1
    10     1     2   ar
    11     2     3   ar
    12     3     4   ar
    13     4     6    1
    14     6     7   ar
    15     7     8   ar
    16     8     9   ar
    17     9    12    1
    18    12    13   am
    19    13    14    2
    20    13    16    1
    21    16    17   ar
    22    17    18   ar
    23    18    19   ar
    24    19    20   ar
    25    20    21   ar
    26    21    22    1
    27     9    10   ar
    28    10    11   ar
    29     4     5   ar
    30    32    33    1
    31    33    34    1
    32    34    29    1
    33     5     1   ar
    34    11     6   ar
    35    21    16   ar
    36    23    24    1
    37    12    15    1
@<TRIPOS>MOLECULE
*****
 34 37 0 0 0
SMALL
GASTEIGER

@<TRIPOS>ATOM
      1 C         139.2606  139.9109  167.9872 C.ar    1  UNL1        0.3086
      2 N         138.3004  138.8660  167.5012 N.ar    1  UNL1       -0.0923
      3 N         137.9417  139.1906  166.0814 N.ar    1  UNL1       -0.1058
      4 C         138.6801  140.4361  165.6898 C.ar    1  UNL1        0.2512
      5 O         139.4953  140.8813  166.8677 O.2     1  UNL1       -0.4048
      6 C         138.6150  141.1169  164.3548 C.ar    1  UNL1        0.0553
      7 C         139.1193  142.5214  164.2038 C.ar    1  UNL1        0.0060
      8 C         139.0541  143.2022  162.8688 C.ar    1  UNL1        0.0148
      9 C         138.4846  142.4784  161.6849 C.ar    1  UNL1        0.0505
     10 C         137.9802  141.0739  161.8359 C.ar    1  UNL1        0.0148
     11 C         138.0454  140.3931  163.1709 C.ar    1  UNL1        0.0060
     12 N         138.4194  143.1592  160.3498 N.am    1  UNL1       -0.2803
     13 C         139.6389  143.2199  159.4785 C.2     1  UNL1        0.2517
     14 O         140.9235  142.5998  159.9422 O.2     1  UNL1       -0.2697
     15 H         137.5762  143.5662  160.0454 H       1  UNL1        0.1552
     16 C         139.5737  143.9006  158.1435 C.ar    1  UNL1        0.0811
     17 C         138.8190  143.2651  157.0136 C.ar    1  UNL1        0.0068
     18 C         138.7537  143.9458  155.6786 C.ar    1  UNL1        0.0003
     19 C         139.4431  145.2621  155.4734 C.ar    1  UNL1        0.0023
     20 C         140.1978  145.8976  156.6033 C.ar    1  UNL1        0.0298
     21 C         140.2630  145.2169  157.9383 C.ar    1  UNL1        0.1445
     22 F         141.0177  145.8525  159.0681 F       1  UNL1       -0.2040
     23 N         139.8777  139.9744  169.3529 N.pl3   1  UNL1       -0.2871
     24 H         139.3213  140.1941  170.1348 H       1  UNL1        0.1512
     25 C         141.3427  139.7029  169.5273 C.3     1  UNL1        0.0925
     26 C         142.3182  140.1496  168.4791 C.3     1  UNL1        0.0386
     27 C         142.8401  139.1672  167.4729 C.3     1  UNL1        0.0739
     28 C         141.4068  139.7609  161.6770 C.3     1  UNL1        0.0897
     29 N         141.7651  139.6125  163.1260 N.3     1  UNL1       -0.2691
     30 C         141.5411  138.3037  163.8237 C.3     1  UNL1        0.0897
     31 C         141.8995  138.1553  165.2727 C.3     1  UNL1        0.0897
     32 N         142.4818  139.3156  166.0240 N.3     1  UNL1       -0.2703
     33 C         142.7058  140.6244  165.3262 C.3     1  UNL1        0.0897
     34 C         142.3474  140.7728  163.8772 C.3     1  UNL1        0.0897
@<TRIPOS>BOND
     1    28    29    1
     2    29    30    1
     3    30    31    1
     4    31    32    1
     5    32    27    1
     6    27    26    1
     7    26    25    1
     8    25    23    1
     9    23     1    1
    10     1     2   ar
    11     2     3   ar
    12     3     4   ar
    13     4     6    1
    14     6     7   ar
    15     7     8   ar
    16     8     9   ar
    17     9    12    1
    18    12    13   am
    19    13    14    2
    20    13    16    1
    21    16    17   ar
    22    17    18   ar
    23    18    19   ar
    24    19    20   ar
    25    20    21   ar
    26    21    22    1
    27     9    10   ar
    28    10    11   ar
    29     4     5   ar
    30    32    33    1
    31    33    34    1
    32    34    29    1
    33     5     1   ar
    34    11     6   ar
    35    21    16   ar
    36    23    24    1
    37    12    15    1
@<TRIPOS>MOLECULE
*****
 34 37 0 0 0
SMALL
GASTEIGER

@<TRIPOS>ATOM
      1 C         142.7580  137.8307  157.5166 C.ar    1  UNL1        0.3086
      2 N         141.3195  138.2275  157.3644 N.ar    1  UNL1       -0.0923
      3 N         140.7601  138.4771  158.7337 N.ar    1  UNL1       -0.1058
      4 C         141.8529  138.2346  159.7321 C.ar    1  UNL1        0.2512
      5 O         143.0877  137.8351  158.9799 O.2     1  UNL1       -0.4048
      6 C         141.7323  138.3681  161.2213 C.ar    1  UNL1        0.0553
      7 C         140.3901  138.6078  161.8464 C.ar    1  UNL1        0.0060
      8 C         140.2694  138.7413  163.3356 C.ar    1  UNL1        0.0148
      9 C         141.4910  138.6352  164.1995 C.ar    1  UNL1        0.0505
     10 C         142.8332  138.3955  163.5743 C.ar    1  UNL1        0.0148
     11 C         142.9539  138.2620  162.0851 C.ar    1  UNL1        0.0060
     12 N         141.3703  138.7687  165.6888 N.am    1  UNL1       -0.2803
     13 C         141.5740  140.1041  166.3410 C.2     1  UNL1        0.2517
     14 O         141.8982  141.3058  165.5040 O.2     1  UNL1       -0.2697
     15 H         141.1575  137.9799  166.2381 H       1  UNL1        0.1552
     16 C         141.4533  140.2376  167.8301 C.ar    1  UNL1        0.0811
     17 C         142.6707  140.5234  168.6585 C.ar    1  UNL1        0.0068
     18 C         142.5502  140.6569  170.1476 C.ar    1  UNL1        0.0003
     19 C         141.2122  140.5046  170.8084 C.ar    1  UNL1        0.0023
     20 C         139.9948  140.2188  169.9800 C.ar    1  UNL1        0.0298
     21 C         140.1154  140.0852  168.4908 C.ar    1  UNL1        0.1445
     22 F         138.8980  139.7994  167.6625 F       1  UNL1       -0.2040
     23 N         143.7012  137.4894  156.4013 N.pl3   1  UNL1       -0.2871
     24 H         144.6691  137.4372  156.5738 H       1  UNL1        0.1512
     25 C         143.1698  137.2278  155.0232 C.3     1  UNL1        0.0925
     26 C         142.6897  135.8559  154.6525 C.3     1  UNL1        0.0386
     27 C         141.9788  135.0104  155.6672 C.3     1  UNL1        0.0739
     28 C         144.7561  130.2874  158.1124 C.3     1  UNL1        0.0897
     29 N         144.0618  131.4681  157.5011 N.3     1  UNL1       -0.2691
     30 C         144.5624  132.8558  157.7726 C.3     1  UNL1        0.0897
     31 C         143.8680  134.0366  157.1613 C.3     1  UNL1        0.0897
     32 N         142.6731  133.8297  156.2785 N.3     1  UNL1       -0.2703
     33 C         142.1726  132.4420  156.0071 C.3     1  UNL1        0.0897
     34 C         142.8669  131.2612  156.6184 C.3     1  UNL1        0.0897
@<TRIPOS>BOND
     1    28    29    1
     2    29    30    1
     3    30    31    1
     4    31    32    1
     5    32    27    1
     6    27    26    1
     7    26    25    1
     8    25    23    1
     9    23     1    1
    10     1     2   ar
    11     2     3   ar
    12     3     4   ar
    13     4     6    1
    14     6     7   ar
    15     7     8   ar
    16     8     9   ar
    17     9    12    1
    18    12    13   am
    19    13    14    2
    20    13    16    1
    21    16    17   ar
    22    17    18   ar
    23    18    19   ar
    24    19    20   ar
    25    20    21   ar
    26    21    22    1
    27     9    10   ar
    28    10    11   ar
    29     4     5   ar
    30    32    33    1
    31    33    34    1
    32    34    29    1
    33     5     1   ar
    34    11     6   ar
    35    21    16   ar
    36    23    24    1
    37    12    15    1
@<TRIPOS>MOLECULE
*****
 34 37 0 0 0
SMALL
GASTEIGER

@<TRIPOS>ATOM
      1 C         140.6846  146.2563  157.6030 C.ar    1  UNL1        0.3086
      2 N         142.0937  145.7604  157.7392 N.ar    1  UNL1       -0.0923
      3 N         142.2228  145.0919  159.0757 N.ar    1  UNL1       -0.1058
      4 C         140.8935  145.1746  159.7657 C.ar    1  UNL1        0.2512
      5 O         139.9429  145.8943  158.8555 O.2     1  UNL1       -0.4048
      6 C         140.5713  144.6329  161.1268 C.ar    1  UNL1        0.0553
      7 C         140.1480  145.5641  162.2238 C.ar    1  UNL1        0.0060
      8 C         139.8258  145.0224  163.5849 C.ar    1  UNL1        0.0148
      9 C         139.9270  143.5493  163.8490 C.ar    1  UNL1        0.0505
     10 C         140.3504  142.6180  162.7520 C.ar    1  UNL1        0.0148
     11 C         140.6725  143.1597  161.3909 C.ar    1  UNL1        0.0060
     12 N         139.6048  143.0075  165.2102 N.am    1  UNL1       -0.2803
     13 C         140.7122  142.6589  166.1601 C.2     1  UNL1        0.2517
     14 O         142.1417  142.8522  165.7488 O.2     1  UNL1       -0.2697
     15 H         138.6666  142.8806  165.4801 H       1  UNL1        0.1552
     16 C         140.3901  142.1172  167.5211 C.ar    1  UNL1        0.0811
     17 C         140.3466  143.0385  168.7041 C.ar    1  UNL1        0.0068
     18 C         140.0245  142.4967  170.0652 C.ar    1  UNL1        0.0003
     19 C         139.7458  141.0337  170.2434 C.ar    1  UNL1        0.0023
     20 C         139.7892  140.1124  169.0605 C.ar    1  UNL1        0.0298
     21 C         140.1114  140.6541  167.6993 C.ar    1  UNL1        0.1445
     22 F         140.1548  139.7328  166.5165 F       1  UNL1       -0.2040
     23 N         140.1170  146.9861  156.4219 N.pl3   1  UNL1       -0.2871
     24 H         140.5712  147.7870  156.0733 H       1  UNL1        0.1512
     25 C         138.8572  146.4956  155.7718 C.3     1  UNL1        0.0925
     26 C         138.8511  145.1853  155.0418 C.3     1  UNL1        0.0386
     27 C         137.8077  144.1552  155.3584 C.3     1  UNL1        0.0739
     28 C         139.0378  139.7253  159.2136 C.3     1  UNL1        0.0897
     29 N         138.7303  140.8328  158.2498 N.3     1  UNL1       -0.2691
     30 C         137.3790  140.9109  157.6035 C.3     1  UNL1        0.0897
     31 C         137.0714  142.0184  156.6397 C.3     1  UNL1        0.0897
     32 N         138.1152  143.0478  156.3222 N.3     1  UNL1       -0.2703
     33 C         139.4666  142.9696  156.9685 C.3     1  UNL1        0.0897
     34 C         139.7741  141.8622  157.9323 C.3     1  UNL1        0.0897
@<TRIPOS>BOND
     1    28    29    1
     2    29    30    1
     3    30    31    1
     4    31    32    1
     5    32    27    1
     6    27    26    1
     7    26    25    1
     8    25    23    1
     9    23     1    1
    10     1     2   ar
    11     2     3   ar
    12     3     4   ar
    13     4     6    1
    14     6     7   ar
    15     7     8   ar
    16     8     9   ar
    17     9    12    1
    18    12    13   am
    19    13    14    2
    20    13    16    1
    21    16    17   ar
    22    17    18   ar
    23    18    19   ar
    24    19    20   ar
    25    20    21   ar
    26    21    22    1
    27     9    10   ar
    28    10    11   ar
    29     4     5   ar
    30    32    33    1
    31    33    34    1
    32    34    29    1
    33     5     1   ar
    34    11     6   ar
    35    21    16   ar
    36    23    24    1
    37    12    15    1
@<TRIPOS>MOLECULE
*****
 34 37 0 0 0
SMALL
GASTEIGER

@<TRIPOS>ATOM
      1 C         141.7739  145.3515  158.1309 C.ar    1  UNL1        0.3086
      2 N         140.3317  145.7041  158.3446 N.ar    1  UNL1       -0.0923
      3 N         139.9754  145.3606  159.7607 N.ar    1  UNL1       -0.1058
      4 C         141.1974  144.7957  160.4221 C.ar    1  UNL1        0.2512
      5 O         142.3089  144.7900  159.4148 O.2     1  UNL1       -0.4048
      6 C         141.2915  144.3199  161.8415 C.ar    1  UNL1        0.0553
      7 C         142.0795  143.0862  162.1683 C.ar    1  UNL1        0.0060
      8 C         142.1735  142.6104  163.5877 C.ar    1  UNL1        0.0148
      9 C         141.4795  143.3684  164.6803 C.ar    1  UNL1        0.0505
     10 C         140.6913  144.6021  164.3535 C.ar    1  UNL1        0.0148
     11 C         140.5973  145.0779  162.9340 C.ar    1  UNL1        0.0060
     12 N         141.5734  142.8926  166.0998 N.am    1  UNL1       -0.2803
     13 C         140.4694  142.0649  166.6881 C.2     1  UNL1        0.2517
     14 O         139.2714  141.7130  165.8569 O.2     1  UNL1       -0.2697
     15 H         142.3597  143.1236  166.6454 H       1  UNL1        0.1552
     16 C         140.5634  141.5892  168.1074 C.ar    1  UNL1        0.0811
     17 C         140.8770  140.1512  168.3973 C.ar    1  UNL1        0.0068
     18 C         140.9710  139.6754  169.8167 C.ar    1  UNL1        0.0003
     19 C         140.7515  140.6375  170.9463 C.ar    1  UNL1        0.0023
     20 C         140.4379  142.0755  170.6565 C.ar    1  UNL1        0.0298
     21 C         140.3438  142.5513  169.2371 C.ar    1  UNL1        0.1445
     22 F         140.0303  143.9892  168.9473 F       1  UNL1       -0.2040
     23 N         142.5456  145.5291  156.8569 N.pl3   1  UNL1       -0.2871
     24 H         143.3092  146.1497  156.8264 H       1  UNL1        0.1512
     25 C         142.1537  144.7612  155.6294 C.3     1  UNL1        0.0925
     26 C         140.7147  144.4108  155.3916 C.3     1  UNL1        0.0386
     27 C         139.9143  145.1746  154.3787 C.3     1  UNL1        0.0739
     28 C         139.3125  151.1219  154.8965 C.3     1  UNL1        0.0897
     29 N         139.4630  149.6351  154.7670 N.3     1  UNL1       -0.2691
     30 C         138.7106  148.7220  155.6891 C.3     1  UNL1        0.0897
     31 C         138.8610  147.2352  155.5596 C.3     1  UNL1        0.0897
     32 N         139.7638  146.6614  154.5082 N.3     1  UNL1       -0.2703
     33 C         140.5162  147.5745  153.5861 C.3     1  UNL1        0.0897
     34 C         140.3658  149.0613  153.7156 C.3     1  UNL1        0.0897
@<TRIPOS>BOND
     1    28    29    1
     2    29    30    1
     3    30    31    1
     4    31    32    1
     5    32    27    1
     6    27    26    1
     7    26    25    1
     8    25    23    1
     9    23     1    1
    10     1     2   ar
    11     2     3   ar
    12     3     4   ar
    13     4     6    1
    14     6     7   ar
    15     7     8   ar
    16     8     9   ar
    17     9    12    1
    18    12    13   am
    19    13    14    2
    20    13    16    1
    21    16    17   ar
    22    17    18   ar
    23    18    19   ar
    24    19    20   ar
    25    20    21   ar
    26    21    22    1
    27     9    10   ar
    28    10    11   ar
    29     4     5   ar
    30    32    33    1
    31    33    34    1
    32    34    29    1
    33     5     1   ar
    34    11     6   ar
    35    21    16   ar
    36    23    24    1
    37    12    15    1
@<TRIPOS>MOLECULE
*****
 34 37 0 0 0
SMALL
GASTEIGER

@<TRIPOS>ATOM
      1 C         140.5736  145.9030  158.2882 C.ar    1  UNL1        0.3086
      2 N         141.9934  145.4209  158.3300 N.ar    1  UNL1       -0.0923
      3 N         142.2206  144.7630  159.6587 N.ar    1  UNL1       -0.1058
      4 C         140.9412  144.8384  160.4381 C.ar    1  UNL1        0.2512
      5 O         139.9233  145.5429  159.5910 O.2     1  UNL1       -0.4048
      6 C         140.7187  144.3032  161.8216 C.ar    1  UNL1        0.0553
      7 C         140.6527  142.8224  162.0513 C.ar    1  UNL1        0.0060
      8 C         140.4302  142.2873  163.4348 C.ar    1  UNL1        0.0148
      9 C         140.2737  143.2329  164.5886 C.ar    1  UNL1        0.0505
     10 C         140.3398  144.7138  164.3588 C.ar    1  UNL1        0.0148
     11 C         140.5623  145.2490  162.9753 C.ar    1  UNL1        0.0060
     12 N         140.0512  142.6978  165.9722 N.am    1  UNL1       -0.2803
     13 C         141.2178  142.2361  166.7943 C.2     1  UNL1        0.2517
     14 O         142.6069  142.3095  166.2329 O.2     1  UNL1       -0.2697
     15 H         139.1395  142.6496  166.3406 H       1  UNL1        0.1552
     16 C         140.9953  141.7010  168.1778 C.ar    1  UNL1        0.0811
     17 C         141.3253  140.2716  168.4911 C.ar    1  UNL1        0.0068
     18 C         141.1028  139.7365  169.8746 C.ar    1  UNL1        0.0003
     19 C         140.5503  140.6306  170.9447 C.ar    1  UNL1        0.0023
     20 C         140.2203  142.0599  170.6314 C.ar    1  UNL1        0.0298
     21 C         140.4428  142.5951  169.2479 C.ar    1  UNL1        0.1445
     22 F         140.1129  144.0243  168.9346 F       1  UNL1       -0.2040
     23 N         139.9190  146.6193  157.1443 N.pl3   1  UNL1       -0.2871
     24 H         139.5683  147.5306  157.2701 H       1  UNL1        0.1512
     25 C         139.7988  145.9472  155.8087 C.3     1  UNL1        0.0925
     26 C         138.4543  145.5098  155.3075 C.3     1  UNL1        0.0386
     27 C         138.3391  144.3011  154.4267 C.3     1  UNL1        0.0739
     28 C         134.3806  139.9909  155.7504 C.3     1  UNL1        0.0897
     29 N         135.3702  141.0685  155.4195 N.3     1  UNL1       -0.2691
     30 C         135.2941  141.7771  154.0997 C.3     1  UNL1        0.0897
     31 C         136.2837  142.8546  153.7688 C.3     1  UNL1        0.0897
     32 N         137.3494  143.2236  154.7577 N.3     1  UNL1       -0.2703
     33 C         137.4256  142.5149  156.0775 C.3     1  UNL1        0.0897
     34 C         136.4359  141.4374  156.4084 C.3     1  UNL1        0.0897
@<TRIPOS>BOND
     1    28    29    1
     2    29    30    1
     3    30    31    1
     4    31    32    1
     5    32    27    1
     6    27    26    1
     7    26    25    1
     8    25    23    1
     9    23     1    1
    10     1     2   ar
    11     2     3   ar
    12     3     4   ar
    13     4     6    1
    14     6     7   ar
    15     7     8   ar
    16     8     9   ar
    17     9    12    1
    18    12    13   am
    19    13    14    2
    20    13    16    1
    21    16    17   ar
    22    17    18   ar
    23    18    19   ar
    24    19    20   ar
    25    20    21   ar
    26    21    22    1
    27     9    10   ar
    28    10    11   ar
    29     4     5   ar
    30    32    33    1
    31    33    34    1
    32    34    29    1
    33     5     1   ar
    34    11     6   ar
    35    21    16   ar
    36    23    24    1
    37    12    15    1
