@<TRIPOS>MOLECULE
*****
 20 22 0 0 0
SMALL
GASTEIGER

@<TRIPOS>ATOM
      1 C         138.7980  139.7182  166.1622 C.ar    1  UNL1       -0.0035
      2 C         138.6941  140.6321  164.9773 C.ar    1  UNL1        0.0757
      3 N         139.3616  141.9279  165.3315 N.ar    1  UNL1       -0.3052
      4 C         139.8781  141.8148  166.7352 C.ar    1  UNL1        0.0638
      5 C         140.6205  142.7789  167.6123 C.ar    1  UNL1        0.0184
      6 C         141.0146  142.3773  169.0027 C.ar    1  UNL1        0.0129
      7 C         140.6663  141.0116  169.5161 C.ar    1  UNL1        0.0578
      8 CL        141.0605  140.6101  170.9066 Cl      1  UNL1       -0.0822
      9 C         139.9239  140.0475  168.6391 C.ar    1  UNL1        0.0126
     10 C         139.5298  140.4491  167.2487 C.ar    1  UNL1        0.0144
     11 C         139.4900  143.1264  164.4387 C.ar    1  UNL1        0.0642
     12 C         140.8264  143.7812  164.2500 C.ar    1  UNL1        0.0198
     13 C         140.9549  144.9797  163.3571 C.ar    1  UNL1        0.0311
     14 C         139.7471  145.5234  162.6531 C.ar    1  UNL1        0.1402
     15 F         139.8756  146.7219  161.7602 F       1  UNL1       -0.2042
     16 C         138.4109  144.8686  162.8418 C.ar    1  UNL1        0.0311
     17 C         138.2824  143.6701  163.7346 C.ar    1  UNL1        0.0198
     18 C         138.7590  137.2691  165.2957 C.3     1  UNL1        0.0047
     19 C         138.2640  138.3190  166.2460 C.3     1  UNL1        0.0239
     20 C         137.2350  137.9695  167.2798 C.3     1  UNL1        0.0047
@<TRIPOS>BOND
     1    18    19    1
     2    19    20    1
     3    19     1    1
     4     1     2   ar
     5     2     3   ar
     6     3    11    1
     7    11    12   ar
     8    12    13   ar
     9    13    14   ar
    10    14    15    1
    11    14    16   ar
    12    16    17   ar
    13     3     4   ar
    14     4     5   ar
    15     5     6   ar
    16     6     7   ar
    17     7     8    1
    18     7     9   ar
    19     9    10   ar
    20    10     1   ar
    21    17    11   ar
    22    10     4   ar
@<TRIPOS>MOLECULE
*****
 20 22 0 0 0
SMALL
GASTEIGER

@<TRIPOS>ATOM
      1 C         142.5555  142.7789  164.2786 C.ar    1  UNL1       -0.0035
      2 C         142.1634  141.4808  164.9197 C.ar    1  UNL1        0.0757
      3 N         140.6800  141.3182  164.7677 N.ar    1  UNL1       -0.3052
      4 C         140.1553  142.5159  164.0326 C.ar    1  UNL1        0.0638
      5 C         138.7719  142.9011  163.5995 C.ar    1  UNL1        0.0184
      6 C         138.5476  144.1890  162.8641 C.ar    1  UNL1        0.0129
      7 C         139.7067  145.0918  162.5618 C.ar    1  UNL1        0.0578
      8 CL        139.4823  146.3798  161.8263 Cl      1  UNL1       -0.0822
      9 C         141.0902  144.7066  162.9949 C.ar    1  UNL1        0.0126
     10 C         141.3145  143.4187  163.7303 C.ar    1  UNL1        0.0144
     11 C         139.8644  140.1611  165.2636 C.ar    1  UNL1        0.0642
     12 C         139.7190  138.9296  164.4196 C.ar    1  UNL1        0.0198
     13 C         138.9034  137.7725  164.9155 C.ar    1  UNL1        0.0311
     14 C         138.2333  137.8469  166.2555 C.ar    1  UNL1        0.1402
     15 F         137.4177  136.6898  166.7514 F       1  UNL1       -0.2042
     16 C         138.3787  139.0784  167.0994 C.ar    1  UNL1        0.0311
     17 C         139.1943  140.2354  166.6035 C.ar    1  UNL1        0.0198
     18 C         144.5818  143.5791  162.8629 C.3     1  UNL1        0.0047
     19 C         143.9448  143.3390  164.1996 C.3     1  UNL1        0.0239
     20 C         144.6971  143.6591  165.4571 C.3     1  UNL1        0.0047
@<TRIPOS>BOND
     1    18    19    1
     2    19    20    1
     3    19     1    1
     4     1     2   ar
     5     2     3   ar
     6     3    11    1
     7    11    12   ar
     8    12    13   ar
     9    13    14   ar
    10    14    15    1
    11    14    16   ar
    12    16    17   ar
    13     3     4   ar
    14     4     5   ar
    15     5     6   ar
    16     6     7   ar
    17     7     8    1
    18     7     9   ar
    19     9    10   ar
    20    10     1   ar
    21    17    11   ar
    22    10     4   ar
@<TRIPOS>MOLECULE
*****
 20 22 0 0 0
SMALL
GASTEIGER

@<TRIPOS>ATOM
      1 C         140.7320  141.7068  168.1570 C.ar    1  UNL1       -0.0035
      2 C         140.2110  142.8574  167.3478 C.ar    1  UNL1        0.0757
      3 N         140.7806  142.7468  165.9646 N.ar    1  UNL1       -0.3052
      4 C         141.6536  141.5279  165.9189 C.ar    1  UNL1        0.0638
      5 C         142.4720  140.9202  164.8185 C.ar    1  UNL1        0.0184
      6 C         143.2604  139.6698  165.0731 C.ar    1  UNL1        0.0129
      7 C         143.2304  139.0270  166.4280 C.ar    1  UNL1        0.0578
      8 CL        144.0188  137.7765  166.6826 Cl      1  UNL1       -0.0822
      9 C         142.4120  139.6347  167.5284 C.ar    1  UNL1        0.0126
     10 C         141.6236  140.8851  167.2738 C.ar    1  UNL1        0.0144
     11 C         140.5225  143.6896  164.8268 C.ar    1  UNL1        0.0642
     12 C         141.6644  144.4197  164.1840 C.ar    1  UNL1        0.0198
     13 C         141.4063  145.3625  163.0462 C.ar    1  UNL1        0.0311
     14 C         140.0064  145.5752  162.5513 C.ar    1  UNL1        0.1402
     15 F         139.7483  146.5180  161.4135 F       1  UNL1       -0.2042
     16 C         138.8646  144.8452  163.1941 C.ar    1  UNL1        0.0311
     17 C         139.1227  143.9024  164.3319 C.ar    1  UNL1        0.0198
     18 C         139.2429  140.5639  169.9533 C.3     1  UNL1        0.0047
     19 C         140.4168  141.4270  169.5965 C.3     1  UNL1        0.0239
     20 C         141.2754  142.0101  170.6794 C.3     1  UNL1        0.0047
@<TRIPOS>BOND
     1    18    19    1
     2    19    20    1
     3    19     1    1
     4     1     2   ar
     5     2     3   ar
     6     3    11    1
     7    11    12   ar
     8    12    13   ar
     9    13    14   ar
    10    14    15    1
    11    14    16   ar
    12    16    17   ar
    13     3     4   ar
    14     4     5   ar
    15     5     6   ar
    16     6     7   ar
    17     7     8    1
    18     7     9   ar
    19     9    10   ar
    20    10     1   ar
    21    17    11   ar
    22    10     4   ar
@<TRIPOS>MOLECULE
*****
 20 22 0 0 0
SMALL
GASTEIGER

@<TRIPOS>ATOM
      1 C         139.6942  139.8777  166.2817 C.ar    1  UNL1       -0.0035
      2 C         140.2957  140.7049  165.1845 C.ar    1  UNL1        0.0757
      3 N         141.1783  141.7407  165.8156 N.ar    1  UNL1       -0.3052
      4 C         141.1223  141.5535  167.3029 C.ar    1  UNL1        0.0638
      5 C         141.7880  142.2828  168.4320 C.ar    1  UNL1        0.0184
      6 C         141.5365  141.8607  169.8492 C.ar    1  UNL1        0.0129
      7 C         140.6193  140.7092  170.1372 C.ar    1  UNL1        0.0578
      8 CL        140.3678  140.2871  171.5545 Cl      1  UNL1       -0.0822
      9 C         139.9536  139.9800  169.0081 C.ar    1  UNL1        0.0126
     10 C         140.2051  140.4021  167.5909 C.ar    1  UNL1        0.0144
     11 C         141.9767  142.7809  165.0874 C.ar    1  UNL1        0.0642
     12 C         143.4754  142.7157  165.0924 C.ar    1  UNL1        0.0198
     13 C         144.2738  143.7560  164.3641 C.ar    1  UNL1        0.0311
     14 C         143.5737  144.8615  163.6309 C.ar    1  UNL1        0.1402
     15 F         144.3721  145.9017  162.9026 F       1  UNL1       -0.2042
     16 C         142.0751  144.9267  163.6259 C.ar    1  UNL1        0.0311
     17 C         141.2767  143.8864  164.3541 C.ar    1  UNL1        0.0198
     18 C         137.6007  138.5447  167.0504 C.3     1  UNL1        0.0047
     19 C         138.7480  138.7278  166.1014 C.3     1  UNL1        0.0239
     20 C         138.9489  137.7611  164.9723 C.3     1  UNL1        0.0047
@<TRIPOS>BOND
     1    18    19    1
     2    19    20    1
     3    19     1    1
     4     1     2   ar
     5     2     3   ar
     6     3    11    1
     7    11    12   ar
     8    12    13   ar
     9    13    14   ar
    10    14    15    1
    11    14    16   ar
    12    16    17   ar
    13     3     4   ar
    14     4     5   ar
    15     5     6   ar
    16     6     7   ar
    17     7     8    1
    18     7     9   ar
    19     9    10   ar
    20    10     1   ar
    21    17    11   ar
    22    10     4   ar
@<TRIPOS>MOLECULE
*****
 20 22 0 0 0
SMALL
GASTEIGER

@<TRIPOS>ATOM
      1 C         141.8019  139.8618  165.5958 C.ar    1  UNL1       -0.0035
      2 C         141.5594  140.7719  164.4284 C.ar    1  UNL1        0.0757
      3 N         140.9928  142.0578  164.9531 N.ar    1  UNL1       -0.3052
      4 C         140.8852  141.9425  166.4448 C.ar    1  UNL1        0.0638
      5 C         140.3964  142.8979  167.4927 C.ar    1  UNL1        0.0184
      6 C         140.4078  142.4961  168.9378 C.ar    1  UNL1        0.0129
      7 C         140.9078  141.1389  169.3350 C.ar    1  UNL1        0.0578
      8 CL        140.9191  140.7371  170.7802 Cl      1  UNL1       -0.0822
      9 C         141.3966  140.1834  168.2871 C.ar    1  UNL1        0.0126
     10 C         141.3852  140.5852  166.8420 C.ar    1  UNL1        0.0144
     11 C         140.6024  143.2499  164.1306 C.ar    1  UNL1        0.0642
     12 C         141.6450  144.2399  163.7028 C.ar    1  UNL1        0.0198
     13 C         141.2546  145.4320  162.8802 C.ar    1  UNL1        0.0311
     14 C         139.8216  145.6341  162.4855 C.ar    1  UNL1        0.1402
     15 F         139.4312  146.8261  161.6629 F       1  UNL1       -0.2042
     16 C         138.7791  144.6441  162.9133 C.ar    1  UNL1        0.0311
     17 C         139.1695  143.4520  163.7358 C.ar    1  UNL1        0.0198
     18 C         143.6588  138.1526  166.2130 C.3     1  UNL1        0.0047
     19 C         142.3627  138.4721  165.5288 C.3     1  UNL1        0.0239
     20 C         141.6275  137.4021  164.7776 C.3     1  UNL1        0.0047
@<TRIPOS>BOND
     1    18    19    1
     2    19    20    1
     3    19     1    1
     4     1     2   ar
     5     2     3   ar
     6     3    11    1
     7    11    12   ar
     8    12    13   ar
     9    13    14   ar
    10    14    15    1
    11    14    16   ar
    12    16    17   ar
    13     3     4   ar
    14     4     5   ar
    15     5     6   ar
    16     6     7   ar
    17     7     8    1
    18     7     9   ar
    19     9    10   ar
    20    10     1   ar
    21    17    11   ar
    22    10     4   ar
@<TRIPOS>MOLECULE
*****
 20 22 0 0 0
SMALL
GASTEIGER

@<TRIPOS>ATOM
      1 C         143.6323  141.3984  164.4527 C.ar    1  UNL1       -0.0035
      2 C         143.2026  141.5698  165.8795 C.ar    1  UNL1        0.0757
      3 N         142.3027  140.4231  166.2335 N.ar    1  UNL1       -0.3052
      4 C         142.1763  139.5430  165.0254 C.ar    1  UNL1        0.0638
      5 C         141.4191  138.2706  164.7854 C.ar    1  UNL1        0.0184
      6 C         141.4836  137.6010  163.4448 C.ar    1  UNL1        0.0129
      7 C         142.3054  138.2038  162.3441 C.ar    1  UNL1        0.0578
      8 CL        142.3699  137.5341  161.0034 Cl      1  UNL1       -0.0822
      9 C         143.0626  139.4762  162.5841 C.ar    1  UNL1        0.0126
     10 C         142.9981  140.1458  163.9248 C.ar    1  UNL1        0.0144
     11 C         141.6448  140.1963  167.5623 C.ar    1  UNL1        0.0642
     12 C         142.4403  139.6463  168.7090 C.ar    1  UNL1        0.0198
     13 C         141.7823  139.4194  170.0378 C.ar    1  UNL1        0.0311
     14 C         140.3290  139.7426  170.2199 C.ar    1  UNL1        0.1402
     15 F         139.6710  139.5158  171.5487 F       1  UNL1       -0.2042
     16 C         139.5335  140.2926  169.0733 C.ar    1  UNL1        0.0311
     17 C         140.1915  140.5194  167.7445 C.ar    1  UNL1        0.0198
     18 C         145.8895  141.8426  163.2451 C.3     1  UNL1        0.0047
     19 C         144.5374  142.3181  163.6879 C.3     1  UNL1        0.0239
     20 C         144.0907  143.7133  163.3659 C.3     1  UNL1        0.0047
@<TRIPOS>BOND
     1    18    19    1
     2    19    20    1
     3    19     1    1
     4     1     2   ar
     5     2     3   ar
     6     3    11    1
     7    11    12   ar
     8    12    13   ar
     9    13    14   ar
    10    14    15    1
    11    14    16   ar
    12    16    17   ar
    13     3     4   ar
    14     4     5   ar
    15     5     6   ar
    16     6     7   ar
    17     7     8    1
    18     7     9   ar
    19     9    10   ar
    20    10     1   ar
    21    17    11   ar
    22    10     4   ar
@<TRIPOS>MOLECULE
*****
 20 22 0 0 0
SMALL
GASTEIGER

@<TRIPOS>ATOM
      1 C         140.3849  141.9445  167.6865 C.ar    1  UNL1       -0.0035
      2 C         140.8239  142.9889  166.7035 C.ar    1  UNL1        0.0757
      3 N         140.3259  142.5870  165.3469 N.ar    1  UNL1       -0.3052
      4 C         139.5791  141.2941  165.4915 C.ar    1  UNL1        0.0638
      5 C         138.8707  140.4272  164.4933 C.ar    1  UNL1        0.0184
      6 C         138.1987  139.1631  164.9411 C.ar    1  UNL1        0.0129
      7 C         138.2352  138.7660  166.3871 C.ar    1  UNL1        0.0578
      8 CL        137.5632  137.5019  166.8349 Cl      1  UNL1       -0.0822
      9 C         138.9437  139.6330  167.3853 C.ar    1  UNL1        0.0126
     10 C         139.6156  140.8970  166.9375 C.ar    1  UNL1        0.0144
     11 C         140.5375  143.3448  164.0698 C.ar    1  UNL1        0.0642
     12 C         141.4115  142.7719  162.9937 C.ar    1  UNL1        0.0198
     13 C         141.6230  143.5297  161.7166 C.ar    1  UNL1        0.0311
     14 C         140.9607  144.8605  161.5156 C.ar    1  UNL1        0.1402
     15 F         141.1723  145.6183  160.2385 F       1  UNL1       -0.2042
     16 C         140.0867  145.4334  162.5917 C.ar    1  UNL1        0.0311
     17 C         139.8752  144.6755  163.8688 C.ar    1  UNL1        0.0198
     18 C         141.3660  140.7805  169.7920 C.3     1  UNL1        0.0047
     19 C         140.6658  141.9470  169.1600 C.3     1  UNL1        0.0239
     20 C         140.2468  143.1158  170.0015 C.3     1  UNL1        0.0047
@<TRIPOS>BOND
     1    18    19    1
     2    19    20    1
     3    19     1    1
     4     1     2   ar
     5     2     3   ar
     6     3    11    1
     7    11    12   ar
     8    12    13   ar
     9    13    14   ar
    10    14    15    1
    11    14    16   ar
    12    16    17   ar
    13     3     4   ar
    14     4     5   ar
    15     5     6   ar
    16     6     7   ar
    17     7     8    1
    18     7     9   ar
    19     9    10   ar
    20    10     1   ar
    21    17    11   ar
    22    10     4   ar
@<TRIPOS>MOLECULE
*****
 20 22 0 0 0
SMALL
GASTEIGER

@<TRIPOS>ATOM
      1 C         141.7213  142.1103  167.8082 C.ar    1  UNL1       -0.0035
      2 C         142.7197  142.5936  166.7984 C.ar    1  UNL1        0.0757
      3 N         142.4266  141.9127  165.4943 N.ar    1  UNL1       -0.3052
      4 C         141.2472  141.0086  165.6982 C.ar    1  UNL1        0.0638
      5 C         140.5138  140.0899  164.7665 C.ar    1  UNL1        0.0184
      6 C         139.3446  139.2934  165.2648 C.ar    1  UNL1        0.0129
      7 C         138.9087  139.4155  166.6948 C.ar    1  UNL1        0.0578
      8 CL        137.7395  138.6188  167.1931 Cl      1  UNL1       -0.0822
      9 C         139.6421  140.3341  167.6266 C.ar    1  UNL1        0.0126
     10 C         140.8113  141.1307  167.1283 C.ar    1  UNL1        0.0144
     11 C         143.1806  142.1026  164.2116 C.ar    1  UNL1        0.0642
     12 C         142.7339  143.1413  163.2257 C.ar    1  UNL1        0.0198
     13 C         143.4879  143.3312  161.9430 C.ar    1  UNL1        0.0311
     14 C         144.6885  142.4824  161.6460 C.ar    1  UNL1        0.1402
     15 F         145.4425  142.6723  160.3632 F       1  UNL1       -0.2042
     16 C         145.1351  141.4438  162.6318 C.ar    1  UNL1        0.0311
     17 C         144.3811  141.2539  163.9145 C.ar    1  UNL1        0.0198
     18 C         140.5970  143.5096  169.6865 C.3     1  UNL1        0.0047
     19 C         141.6462  142.5324  169.2456 C.3     1  UNL1        0.0239
     20 C         142.6202  141.9775  170.2422 C.3     1  UNL1        0.0047
@<TRIPOS>BOND
     1    18    19    1
     2    19    20    1
     3    19     1    1
     4     1     2   ar
     5     2     3   ar
     6     3    11    1
     7    11    12   ar
     8    12    13   ar
     9    13    14   ar
    10    14    15    1
    11    14    16   ar
    12    16    17   ar
    13     3     4   ar
    14     4     5   ar
    15     5     6   ar
    16     6     7   ar
    17     7     8    1
    18     7     9   ar
    19     9    10   ar
    20    10     1   ar
    21    17    11   ar
    22    10     4   ar
@<TRIPOS>MOLECULE
*****
 20 22 0 0 0
SMALL
GASTEIGER

@<TRIPOS>ATOM
      1 C         142.8570  140.2160  164.7521 C.ar    1  UNL1       -0.0035
      2 C         142.7587  140.9176  166.0743 C.ar    1  UNL1        0.0757
      3 N         141.3281  140.8641  166.5221 N.ar    1  UNL1       -0.3052
      4 C         140.5422  140.1295  165.4767 C.ar    1  UNL1        0.0638
      5 C         139.0883  139.7735  165.3796 C.ar    1  UNL1        0.0184
      6 C         138.5794  139.0170  164.1885 C.ar    1  UNL1        0.0129
      7 C         139.5243  138.6165  163.0946 C.ar    1  UNL1        0.0578
      8 CL        139.0153  137.8600  161.9035 Cl      1  UNL1       -0.0822
      9 C         140.9782  138.9724  163.1917 C.ar    1  UNL1        0.0126
     10 C         141.4872  139.7289  164.3828 C.ar    1  UNL1        0.0144
     11 C         140.7796  141.4435  167.7923 C.ar    1  UNL1        0.0642
     12 C         140.9481  142.9052  168.0840 C.ar    1  UNL1        0.0198
     13 C         140.3996  143.4846  169.3543 C.ar    1  UNL1        0.0311
     14 C         139.6826  142.6024  170.3328 C.ar    1  UNL1        0.1402
     15 F         139.1341  143.1818  171.6030 F       1  UNL1       -0.2042
     16 C         139.5141  141.1407  170.0410 C.ar    1  UNL1        0.0311
     17 C         140.0626  140.5613  168.7708 C.ar    1  UNL1        0.0198
     18 C         144.2245  140.6769  162.5916 C.3     1  UNL1        0.0047
     19 C         144.1058  140.0335  163.9415 C.3     1  UNL1        0.0239
     20 C         145.2360  139.2078  164.4807 C.3     1  UNL1        0.0047
@<TRIPOS>BOND
     1    18    19    1
     2    19    20    1
     3    19     1    1
     4     1     2   ar
     5     2     3   ar
     6     3    11    1
     7    11    12   ar
     8    12    13   ar
     9    13    14   ar
    10    14    15    1
    11    14    16   ar
    12    16    17   ar
    13     3     4   ar
    14     4     5   ar
    15     5     6   ar
    16     6     7   ar
    17     7     8    1
    18     7     9   ar
    19     9    10   ar
    20    10     1   ar
    21    17    11   ar
    22    10     4   ar
