@<TRIPOS>MOLECULE
*****
 34 38 0 0 0
SMALL
GASTEIGER

@<TRIPOS>ATOM
      1 N         139.1801  138.4966  162.5398 N.3     1  UNL1       -0.2702
      2 C         138.8193  139.1821  163.8242 C.3     1  UNL1        0.0747
      3 C         139.8415  139.3204  164.9133 C.3     1  UNL1        0.0463
      4 C         141.2244  138.7733  164.7179 C.3     1  UNL1        0.1136
      5 C         141.5851  138.0878  163.4334 C.3     1  UNL1        0.0463
      6 C         140.5630  137.9494  162.3444 C.3     1  UNL1        0.0747
      7 C         140.8636  139.4588  166.0024 C.3     1  UNL1        0.1194
      8 N         141.8857  139.5971  167.0915 N.pl3   1  UNL1       -0.2869
      9 C         143.2686  139.0499  166.8961 C.3     1  UNL1        0.1243
     10 C         143.6294  138.3644  165.6116 C.3     1  UNL1        0.1634
     11 O         142.6073  138.2261  164.5225 O.3     1  UNL1       -0.3549
     12 C         141.5250  140.2826  168.3760 C.ar    1  UNL1        0.1518
     13 C         140.2915  139.8722  169.1244 C.ar    1  UNL1        0.0410
     14 C         139.9307  140.5577  170.4089 C.ar    1  UNL1        0.0651
     15 C         140.8034  141.6535  170.9450 C.ar    1  UNL1        0.2766
     16 O         140.4426  142.3390  172.2296 O.2     1  UNL1       -0.2655
     17 N         142.0369  142.0639  170.1966 N.ar    1  UNL1       -0.2134
     18 C         142.9096  143.1598  170.7328 C.3     1  UNL1        0.1571
     19 N         142.3977  141.3785  168.9121 N.ar    1  UNL1       -0.1517
     20 C         138.1580  138.3583  161.4506 C.3     1  UNL1        0.1063
     21 C         137.6141  139.5808  160.7728 C.3     1  UNL1        0.1483
     22 O         136.2097  139.5841  160.2459 O.3     1  UNL1       -0.3786
     23 H         136.0185  140.4444  159.8406 H       1  UNL1        0.2108
     24 C         137.3067  141.8790  162.6764 C.3     1  UNL1        0.0306
     25 C         138.3210  141.9492  161.5735 C.ar    1  UNL1       -0.0238
     26 C         138.4747  140.8001  160.6217 C.ar    1  UNL1        0.0015
     27 C         139.4890  140.8703  159.5189 C.ar    1  UNL1       -0.0020
     28 C         140.3496  142.0895  159.3678 C.ar    1  UNL1        0.0060
     29 C         140.1959  143.2386  160.3196 C.ar    1  UNL1        0.0748
     30 C         139.1816  143.1684  161.4224 C.ar    1  UNL1        0.0233
     31 C         139.2563  144.4472  162.2029 C.3     1  UNL1        0.2352
     32 O         140.3167  145.3077  161.5824 O.3     1  UNL1       -0.4404
     33 C         140.8974  144.5607  160.4185 C.2     1  UNL1        0.3413
     34 O         141.9882  145.0500  159.5124 O.2     1  UNL1       -0.2449
@<TRIPOS>BOND
     1    24    25    1
     2    25    26   ar
     3    26    21    1
     4    21    22    1
     5    21    20    1
     6    20     1    1
     7     1     2    1
     8     2     3    1
     9     3     4    1
    10     4     5    1
    11     5     6    1
    12     4     7    1
    13     7     8    1
    14     8    12    1
    15    12    13   ar
    16    13    14   ar
    17    14    15   ar
    18    15    16    2
    19    15    17   ar
    20    17    18    1
    21    17    19   ar
    22     8     9    1
    23     9    10    1
    24    10    11    1
    25    26    27   ar
    26    27    28   ar
    27    28    29   ar
    28    29    30   ar
    29    30    31    1
    30    31    32    1
    31    32    33    1
    32    33    34    2
    33    30    25   ar
    34     6     1    1
    35    19    12   ar
    36    33    29    1
    37    11     4    1
    38    22    23    1
@<TRIPOS>MOLECULE
*****
 34 38 0 0 0
SMALL
GASTEIGER

@<TRIPOS>ATOM
      1 N         143.9888  142.0982  162.4515 N.3     1  UNL1       -0.2702
      2 C         143.3516  142.6660  163.6850 C.3     1  UNL1        0.0747
      3 C         143.1799  141.8079  164.9032 C.3     1  UNL1        0.0463
      4 C         143.6454  140.3821  164.8880 C.3     1  UNL1        0.1136
      5 C         144.2826  139.8143  163.6546 C.3     1  UNL1        0.0463
      6 C         144.4544  140.6723  162.4363 C.3     1  UNL1        0.0747
      7 C         143.0081  140.9498  166.1216 C.3     1  UNL1        0.1194
      8 N         142.8363  140.0918  167.3398 N.pl3   1  UNL1       -0.2869
      9 C         143.3019  138.6659  167.3246 C.3     1  UNL1        0.1243
     10 C         143.9391  138.0981  166.0911 C.3     1  UNL1        0.1634
     11 O         144.1109  138.9562  164.8728 O.3     1  UNL1       -0.3549
     12 C         142.1991  140.6596  168.5734 C.ar    1  UNL1        0.1518
     13 C         142.1190  139.8347  169.8237 C.ar    1  UNL1        0.0410
     14 C         141.4817  140.4024  171.0572 C.ar    1  UNL1        0.0651
     15 C         140.9246  141.7950  171.0404 C.ar    1  UNL1        0.2766
     16 O         140.2873  142.3627  172.2739 O.2     1  UNL1       -0.2655
     17 N         141.0046  142.6198  169.7901 N.ar    1  UNL1       -0.2134
     18 C         140.4474  144.0124  169.7733 C.3     1  UNL1        0.1571
     19 N         141.6419  142.0521  168.5566 N.ar    1  UNL1       -0.1517
     20 C         144.1606  142.9563  161.2332 C.3     1  UNL1        0.1063
     21 C         143.0441  143.0794  160.2391 C.3     1  UNL1        0.1483
     22 O         143.2235  143.9205  159.0101 O.3     1  UNL1       -0.3786
     23 H         142.4130  143.8925  158.4780 H       1  UNL1        0.2108
     24 C         140.8185  144.4458  161.7156 C.3     1  UNL1        0.0306
     25 C         140.6354  143.0447  161.2122 C.ar    1  UNL1       -0.0238
     26 C         141.7481  142.3615  160.4740 C.ar    1  UNL1        0.0015
     27 C         141.5650  140.9604  159.9706 C.ar    1  UNL1       -0.0020
     28 C         140.2691  140.2425  160.2054 C.ar    1  UNL1        0.0060
     29 C         139.1564  140.9256  160.9437 C.ar    1  UNL1        0.0748
     30 C         139.3395  142.3267  161.4471 C.ar    1  UNL1        0.0233
     31 C         138.0735  142.7406  162.1370 C.3     1  UNL1        0.2352
     32 O         137.1079  141.5953  162.0600 O.3     1  UNL1       -0.4404
     33 C         137.7772  140.4736  161.3225 C.2     1  UNL1        0.3413
     34 O         137.1733  139.1349  161.0173 O.2     1  UNL1       -0.2449
@<TRIPOS>BOND
     1    24    25    1
     2    25    26   ar
     3    26    21    1
     4    21    22    1
     5    21    20    1
     6    20     1    1
     7     1     2    1
     8     2     3    1
     9     3     4    1
    10     4     5    1
    11     5     6    1
    12     4     7    1
    13     7     8    1
    14     8    12    1
    15    12    13   ar
    16    13    14   ar
    17    14    15   ar
    18    15    16    2
    19    15    17   ar
    20    17    18    1
    21    17    19   ar
    22     8     9    1
    23     9    10    1
    24    10    11    1
    25    26    27   ar
    26    27    28   ar
    27    28    29   ar
    28    29    30   ar
    29    30    31    1
    30    31    32    1
    31    32    33    1
    32    33    34    2
    33    30    25   ar
    34     6     1    1
    35    19    12   ar
    36    33    29    1
    37    11     4    1
    38    22    23    1
@<TRIPOS>MOLECULE
*****
 34 38 0 0 0
SMALL
GASTEIGER

@<TRIPOS>ATOM
      1 N         141.9918  138.0354  162.5427 N.3     1  UNL1       -0.2702
      2 C         142.5412  138.7561  163.7380 C.3     1  UNL1        0.0747
      3 C         141.6603  139.0251  164.9219 C.3     1  UNL1        0.0463
      4 C         140.2300  138.5733  164.9105 C.3     1  UNL1        0.1136
      5 C         139.6806  137.8525  163.7153 C.3     1  UNL1        0.0463
      6 C         140.5615  137.5836  162.5314 C.3     1  UNL1        0.0747
      7 C         140.7794  139.2941  166.1059 C.3     1  UNL1        0.1194
      8 N         139.8985  139.5630  167.2898 N.pl3   1  UNL1       -0.2869
      9 C         138.4682  139.1112  167.2784 C.3     1  UNL1        0.1243
     10 C         137.9188  138.3904  166.0832 C.3     1  UNL1        0.1634
     11 O         138.7997  138.1215  164.8992 O.3     1  UNL1       -0.3549
     12 C         140.4479  140.2838  168.4851 C.ar    1  UNL1        0.1518
     13 C         139.6413  140.3667  169.7470 C.ar    1  UNL1        0.0410
     14 C         140.1906  141.0875  170.9423 C.ar    1  UNL1        0.0651
     15 C         141.5466  141.7253  170.8756 C.ar    1  UNL1        0.2766
     16 O         142.0960  142.4461  172.0709 O.2     1  UNL1       -0.2655
     17 N         142.3532  141.6424  169.6137 N.ar    1  UNL1       -0.2134
     18 C         143.7093  142.2803  169.5471 C.3     1  UNL1        0.1571
     19 N         141.8039  140.9216  168.4184 N.ar    1  UNL1       -0.1517
     20 C         142.8726  137.7664  161.3587 C.3     1  UNL1        0.1063
     21 C         143.2387  138.8835  160.4271 C.3     1  UNL1        0.1483
     22 O         143.5709  138.5872  158.9947 O.3     1  UNL1       -0.3786
     23 H         143.7833  139.4141  158.5343 H       1  UNL1        0.2108
     24 C         140.7848  140.5995  160.2433 C.3     1  UNL1        0.0306
     25 C         142.0458  141.1550  160.8360 C.ar    1  UNL1       -0.0238
     26 C         143.2727  140.2971  160.9279 C.ar    1  UNL1        0.0015
     27 C         144.5337  140.8527  161.5206 C.ar    1  UNL1       -0.0020
     28 C         144.5677  142.2662  162.0214 C.ar    1  UNL1        0.0060
     29 C         143.3407  143.1241  161.9295 C.ar    1  UNL1        0.0748
     30 C         142.0798  142.5685  161.3368 C.ar    1  UNL1        0.0233
     31 C         141.0351  143.6441  161.3782 C.3     1  UNL1        0.2352
     32 O         141.6503  144.8644  161.9964 O.3     1  UNL1       -0.4404
     33 C         143.0753  144.5430  162.3372 C.2     1  UNL1        0.3413
     34 O         144.0617  145.4767  162.9738 O.2     1  UNL1       -0.2449
@<TRIPOS>BOND
     1    24    25    1
     2    25    26   ar
     3    26    21    1
     4    21    22    1
     5    21    20    1
     6    20     1    1
     7     1     2    1
     8     2     3    1
     9     3     4    1
    10     4     5    1
    11     5     6    1
    12     4     7    1
    13     7     8    1
    14     8    12    1
    15    12    13   ar
    16    13    14   ar
    17    14    15   ar
    18    15    16    2
    19    15    17   ar
    20    17    18    1
    21    17    19   ar
    22     8     9    1
    23     9    10    1
    24    10    11    1
    25    26    27   ar
    26    27    28   ar
    27    28    29   ar
    28    29    30   ar
    29    30    31    1
    30    31    32    1
    31    32    33    1
    32    33    34    2
    33    30    25   ar
    34     6     1    1
    35    19    12   ar
    36    33    29    1
    37    11     4    1
    38    22    23    1
@<TRIPOS>MOLECULE
*****
 34 38 0 0 0
SMALL
GASTEIGER

@<TRIPOS>ATOM
      1 N         142.1009  138.0816  162.3080 N.3     1  UNL1       -0.2702
      2 C         142.7567  138.9921  163.3035 C.3     1  UNL1        0.0747
      3 C         142.0254  139.3903  164.5511 C.3     1  UNL1        0.0463
      4 C         140.6384  138.8778  164.8034 C.3     1  UNL1        0.1136
      5 C         139.9826  137.9673  163.8080 C.3     1  UNL1        0.0463
      6 C         140.7139  137.5692  162.5603 C.3     1  UNL1        0.0747
      7 C         141.2941  139.7884  165.7989 C.3     1  UNL1        0.1194
      8 N         140.5629  140.1865  167.0465 N.pl3   1  UNL1       -0.2869
      9 C         139.1759  139.6741  167.2988 C.3     1  UNL1        0.1243
     10 C         138.5201  138.7636  166.3034 C.3     1  UNL1        0.1634
     11 O         139.2514  138.3654  165.0556 O.3     1  UNL1       -0.3549
     12 C         141.2186  141.0971  168.0420 C.ar    1  UNL1        0.1518
     13 C         142.6241  140.8285  168.4920 C.ar    1  UNL1        0.0410
     14 C         143.2799  141.7390  169.4874 C.ar    1  UNL1        0.0651
     15 C         142.5301  142.9181  170.0329 C.ar    1  UNL1        0.2766
     16 O         143.1858  143.8287  171.0284 O.2     1  UNL1       -0.2655
     17 N         141.1246  143.1867  169.5829 N.ar    1  UNL1       -0.2134
     18 C         140.3749  144.3659  170.1285 C.3     1  UNL1        0.1571
     19 N         140.4689  142.2762  168.5875 N.ar    1  UNL1       -0.1517
     20 C         142.8322  137.6835  161.0603 C.3     1  UNL1        0.1063
     21 C         142.7467  138.5433  159.8342 C.3     1  UNL1        0.1483
     22 O         143.1823  138.0003  158.5055 O.3     1  UNL1       -0.3786
     23 H         143.0627  138.6797  157.8236 H       1  UNL1        0.2108
     24 C         139.8422  139.1050  159.3361 C.3     1  UNL1        0.0306
     25 C         140.7735  140.2271  159.6877 C.ar    1  UNL1       -0.0238
     26 C         142.2258  139.9462  159.9368 C.ar    1  UNL1        0.0015
     27 C         143.1571  141.0682  160.2884 C.ar    1  UNL1       -0.0020
     28 C         142.6362  142.4711  160.3910 C.ar    1  UNL1        0.0060
     29 C         141.1840  142.7520  160.1419 C.ar    1  UNL1        0.0748
     30 C         140.2527  141.6299  159.7903 C.ar    1  UNL1        0.0233
     31 C         138.8814  142.2078  159.6012 C.3     1  UNL1        0.2352
     32 O         138.9652  143.6869  159.8360 O.3     1  UNL1       -0.4404
     33 C         140.3883  144.0232  160.1702 C.2     1  UNL1        0.3413
     34 O         140.9221  145.3907  160.4785 O.2     1  UNL1       -0.2449
@<TRIPOS>BOND
     1    24    25    1
     2    25    26   ar
     3    26    21    1
     4    21    22    1
     5    21    20    1
     6    20     1    1
     7     1     2    1
     8     2     3    1
     9     3     4    1
    10     4     5    1
    11     5     6    1
    12     4     7    1
    13     7     8    1
    14     8    12    1
    15    12    13   ar
    16    13    14   ar
    17    14    15   ar
    18    15    16    2
    19    15    17   ar
    20    17    18    1
    21    17    19   ar
    22     8     9    1
    23     9    10    1
    24    10    11    1
    25    26    27   ar
    26    27    28   ar
    27    28    29   ar
    28    29    30   ar
    29    30    31    1
    30    31    32    1
    31    32    33    1
    32    33    34    2
    33    30    25   ar
    34     6     1    1
    35    19    12   ar
    36    33    29    1
    37    11     4    1
    38    22    23    1
@<TRIPOS>MOLECULE
*****
 34 38 0 0 0
SMALL
GASTEIGER

@<TRIPOS>ATOM
      1 N         139.3695  137.7170  163.8779 N.3     1  UNL1       -0.2702
      2 C         138.5211  138.0685  162.6919 C.3     1  UNL1        0.0747
      3 C         139.1498  138.2198  161.3385 C.3     1  UNL1        0.0463
      4 C         140.6270  138.0196  161.1711 C.3     1  UNL1        0.1136
      5 C         141.4754  137.6681  162.3571 C.3     1  UNL1        0.0463
      6 C         140.8466  137.5168  163.7105 C.3     1  UNL1        0.0747
      7 C         139.7786  138.3711  159.9850 C.3     1  UNL1        0.1194
      8 N         140.4073  138.5224  158.6316 N.pl3   1  UNL1       -0.2869
      9 C         141.8844  138.3223  158.4642 C.3     1  UNL1        0.1243
     10 C         142.7328  137.9708  159.6502 C.3     1  UNL1        0.1634
     11 O         142.1041  137.8194  161.0037 O.3     1  UNL1       -0.3549
     12 C         139.5589  138.8739  157.4455 C.ar    1  UNL1        0.1518
     13 C         139.7587  138.1589  156.1421 C.ar    1  UNL1        0.0410
     14 C         138.9104  138.5103  154.9561 C.ar    1  UNL1        0.0651
     15 C         137.8622  139.5768  155.0734 C.ar    1  UNL1        0.2766
     16 O         137.0138  139.9283  153.8873 O.2     1  UNL1       -0.2655
     17 N         137.6623  140.2919  156.3767 N.ar    1  UNL1       -0.2134
     18 C         136.6141  141.3584  156.4940 C.3     1  UNL1        0.1571
     19 N         138.5107  139.9404  157.5628 N.ar    1  UNL1       -0.1517
     20 C         138.7408  137.5657  165.2314 C.3     1  UNL1        0.1063
     21 C         138.4903  138.7758  166.0815 C.3     1  UNL1        0.1483
     22 O         137.8970  138.6209  167.4505 O.3     1  UNL1       -0.3786
     23 H         137.8016  139.4940  167.8622 H       1  UNL1        0.2108
     24 C         141.2222  139.9197  166.5595 C.3     1  UNL1        0.0306
     25 C         140.1991  140.7128  165.8018 C.ar    1  UNL1       -0.0238
     26 C         138.8332  140.1409  165.5628 C.ar    1  UNL1        0.0015
     27 C         137.8100  140.9340  164.8050 C.ar    1  UNL1       -0.0020
     28 C         138.1528  142.2990  164.2862 C.ar    1  UNL1        0.0060
     29 C         139.5187  142.8709  164.5252 C.ar    1  UNL1        0.0748
     30 C         140.5419  142.0778  165.2830 C.ar    1  UNL1        0.0233
     31 C         141.7963  142.8964  165.3635 C.3     1  UNL1        0.2352
     32 O         141.5485  144.1953  164.6556 O.3     1  UNL1       -0.4404
     33 C         140.1409  144.1796  164.1375 C.2     1  UNL1        0.3413
     34 O         139.4726  145.2795  163.3669 O.2     1  UNL1       -0.2449
@<TRIPOS>BOND
     1    24    25    1
     2    25    26   ar
     3    26    21    1
     4    21    22    1
     5    21    20    1
     6    20     1    1
     7     1     2    1
     8     2     3    1
     9     3     4    1
    10     4     5    1
    11     5     6    1
    12     4     7    1
    13     7     8    1
    14     8    12    1
    15    12    13   ar
    16    13    14   ar
    17    14    15   ar
    18    15    16    2
    19    15    17   ar
    20    17    18    1
    21    17    19   ar
    22     8     9    1
    23     9    10    1
    24    10    11    1
    25    26    27   ar
    26    27    28   ar
    27    28    29   ar
    28    29    30   ar
    29    30    31    1
    30    31    32    1
    31    32    33    1
    32    33    34    2
    33    30    25   ar
    34     6     1    1
    35    19    12   ar
    36    33    29    1
    37    11     4    1
    38    22    23    1
@<TRIPOS>MOLECULE
*****
 34 38 0 0 0
SMALL
GASTEIGER

@<TRIPOS>ATOM
      1 N         138.6252  141.1715  164.0571 N.3     1  UNL1       -0.2702
      2 C         139.4153  140.8703  162.8181 C.3     1  UNL1        0.0747
      3 C         139.8647  141.9884  161.9249 C.3     1  UNL1        0.0463
      4 C         139.5241  143.4077  162.2708 C.3     1  UNL1        0.1136
      5 C         138.7341  143.7089  163.5097 C.3     1  UNL1        0.0463
      6 C         138.2846  142.5908  164.4029 C.3     1  UNL1        0.0747
      7 C         140.3141  143.1066  161.0317 C.3     1  UNL1        0.1194
      8 N         140.7636  144.2247  160.1385 N.pl3   1  UNL1       -0.2869
      9 C         140.4229  145.6440  160.4843 C.3     1  UNL1        0.1243
     10 C         139.6329  145.9452  161.7233 C.3     1  UNL1        0.1634
     11 O         139.1835  144.8270  162.6166 O.3     1  UNL1       -0.3549
     12 C         141.5536  143.9236  158.8995 C.ar    1  UNL1        0.1518
     13 C         140.9680  144.2099  157.5485 C.ar    1  UNL1        0.0410
     14 C         141.7580  143.9088  156.3095 C.ar    1  UNL1        0.0651
     15 C         143.1336  143.3214  156.4214 C.ar    1  UNL1        0.2766
     16 O         143.9237  143.0202  155.1824 O.2     1  UNL1       -0.2655
     17 N         143.7192  143.0350  157.7724 N.ar    1  UNL1       -0.2134
     18 C         145.0949  142.4475  157.8843 C.3     1  UNL1        0.1571
     19 N         142.9292  143.3361  159.0114 N.ar    1  UNL1       -0.1517
     20 C         138.1758  140.0534  164.9503 C.3     1  UNL1        0.1063
     21 C         139.1614  139.3715  165.8522 C.3     1  UNL1        0.1483
     22 O         139.7397  138.0431  165.4634 O.3     1  UNL1       -0.3786
     23 H         140.3547  137.7444  166.1514 H       1  UNL1        0.2108
     24 C         141.6058  141.1079  165.9542 C.3     1  UNL1        0.0306
     25 C         140.7911  140.8861  167.1940 C.ar    1  UNL1       -0.0238
     26 C         139.5689  140.0179  167.1430 C.ar    1  UNL1        0.0015
     27 C         138.7542  139.7962  168.3828 C.ar    1  UNL1       -0.0020
     28 C         139.1617  140.4425  169.6736 C.ar    1  UNL1        0.0060
     29 C         140.3838  141.3107  169.7246 C.ar    1  UNL1        0.0748
     30 C         141.1985  141.5325  168.4848 C.ar    1  UNL1        0.0233
     31 C         142.3451  142.4327  168.8385 C.3     1  UNL1        0.2352
     32 O         142.2390  142.7673  170.2968 O.3     1  UNL1       -0.4404
     33 C         141.0269  142.0738  170.8444 C.2     1  UNL1        0.3413
     34 O         140.5428  142.1331  172.2629 O.2     1  UNL1       -0.2449
@<TRIPOS>BOND
     1    24    25    1
     2    25    26   ar
     3    26    21    1
     4    21    22    1
     5    21    20    1
     6    20     1    1
     7     1     2    1
     8     2     3    1
     9     3     4    1
    10     4     5    1
    11     5     6    1
    12     4     7    1
    13     7     8    1
    14     8    12    1
    15    12    13   ar
    16    13    14   ar
    17    14    15   ar
    18    15    16    2
    19    15    17   ar
    20    17    18    1
    21    17    19   ar
    22     8     9    1
    23     9    10    1
    24    10    11    1
    25    26    27   ar
    26    27    28   ar
    27    28    29   ar
    28    29    30   ar
    29    30    31    1
    30    31    32    1
    31    32    33    1
    32    33    34    2
    33    30    25   ar
    34     6     1    1
    35    19    12   ar
    36    33    29    1
    37    11     4    1
    38    22    23    1
@<TRIPOS>MOLECULE
*****
 34 38 0 0 0
SMALL
GASTEIGER

@<TRIPOS>ATOM
      1 N         142.4143  139.4185  162.8644 N.3     1  UNL1       -0.2702
      2 C         142.0401  138.1708  162.1207 C.3     1  UNL1        0.0747
      3 C         142.2864  138.0755  160.6441 C.3     1  UNL1        0.0463
      4 C         142.9069  139.2280  159.9114 C.3     1  UNL1        0.1136
      5 C         143.2811  140.4756  160.6551 C.3     1  UNL1        0.0463
      6 C         143.0348  140.5709  162.1317 C.3     1  UNL1        0.0747
      7 C         142.5327  137.9802  159.1675 C.3     1  UNL1        0.1194
      8 N         142.7790  137.8850  157.6910 N.pl3   1  UNL1       -0.2869
      9 C         143.3994  139.0374  156.9582 C.3     1  UNL1        0.1243
     10 C         143.7736  140.2851  157.7020 C.3     1  UNL1        0.1634
     11 O         143.5273  140.3804  159.1786 O.3     1  UNL1       -0.3549
     12 C         142.4048  136.6373  156.9471 C.ar    1  UNL1        0.1518
     13 C         141.3667  136.6916  155.8657 C.ar    1  UNL1        0.0410
     14 C         140.9925  135.4440  155.1219 C.ar    1  UNL1        0.0651
     15 C         141.6564  134.1420  155.4594 C.ar    1  UNL1        0.2766
     16 O         141.2822  132.8943  154.7156 O.2     1  UNL1       -0.2655
     17 N         142.6945  134.0876  156.5408 N.ar    1  UNL1       -0.2134
     18 C         143.3584  132.7855  156.8783 C.3     1  UNL1        0.1571
     19 N         143.0687  135.3353  157.2846 N.ar    1  UNL1       -0.1517
     20 C         142.1681  139.5138  164.3411 C.3     1  UNL1        0.1063
     21 C         141.2418  140.5629  164.8808 C.3     1  UNL1        0.1483
     22 O         140.3238  141.3021  163.9529 O.3     1  UNL1       -0.3786
     23 H         139.7970  141.9398  164.4595 H       1  UNL1        0.2108
     24 C         139.0240  139.5333  166.6190 C.3     1  UNL1        0.0306
     25 C         140.1247  140.3582  167.2175 C.ar    1  UNL1       -0.0238
     26 C         141.2336  140.8730  166.3484 C.ar    1  UNL1        0.0015
     27 C         142.3342  141.6978  166.9469 C.ar    1  UNL1       -0.0020
     28 C         142.3260  142.0079  168.4144 C.ar    1  UNL1        0.0060
     29 C         141.2171  141.4931  169.2835 C.ar    1  UNL1        0.0748
     30 C         140.1165  140.6682  168.6850 C.ar    1  UNL1        0.0233
     31 C         139.1629  140.3009  169.7832 C.3     1  UNL1        0.2352
     32 O         139.6743  140.8987  171.0603 O.3     1  UNL1       -0.4404
     33 C         140.9438  141.6355  170.7515 C.2     1  UNL1        0.3413
     34 O         141.7913  142.3835  171.7376 O.2     1  UNL1       -0.2449
@<TRIPOS>BOND
     1    24    25    1
     2    25    26   ar
     3    26    21    1
     4    21    22    1
     5    21    20    1
     6    20     1    1
     7     1     2    1
     8     2     3    1
     9     3     4    1
    10     4     5    1
    11     5     6    1
    12     4     7    1
    13     7     8    1
    14     8    12    1
    15    12    13   ar
    16    13    14   ar
    17    14    15   ar
    18    15    16    2
    19    15    17   ar
    20    17    18    1
    21    17    19   ar
    22     8     9    1
    23     9    10    1
    24    10    11    1
    25    26    27   ar
    26    27    28   ar
    27    28    29   ar
    28    29    30   ar
    29    30    31    1
    30    31    32    1
    31    32    33    1
    32    33    34    2
    33    30    25   ar
    34     6     1    1
    35    19    12   ar
    36    33    29    1
    37    11     4    1
    38    22    23    1
@<TRIPOS>MOLECULE
*****
 34 38 0 0 0
SMALL
GASTEIGER

@<TRIPOS>ATOM
      1 N         144.3336  141.7658  162.1511 N.3     1  UNL1       -0.2702
      2 C         143.5359  142.4662  163.2108 C.3     1  UNL1        0.0747
      3 C         143.1978  141.7552  164.4876 C.3     1  UNL1        0.0463
      4 C         143.6574  140.3440  164.7046 C.3     1  UNL1        0.1136
      5 C         144.4551  139.6436  163.6448 C.3     1  UNL1        0.0463
      6 C         144.7932  140.3546  162.3681 C.3     1  UNL1        0.0747
      7 C         142.8596  141.0443  165.7644 C.3     1  UNL1        0.1194
      8 N         142.5215  140.3334  167.0412 N.pl3   1  UNL1       -0.2869
      9 C         142.9810  138.9221  167.2582 C.3     1  UNL1        0.1243
     10 C         143.7788  138.2217  166.1984 C.3     1  UNL1        0.1634
     11 O         144.1169  138.9327  164.9216 O.3     1  UNL1       -0.3549
     12 C         141.7237  141.0337  168.1010 C.ar    1  UNL1        0.1518
     13 C         142.1575  142.3804  168.5991 C.ar    1  UNL1        0.0410
     14 C         141.3598  143.0808  169.6589 C.ar    1  UNL1        0.0651
     15 C         140.1283  142.4343  170.2206 C.ar    1  UNL1        0.2766
     16 O         139.3306  143.1347  171.2805 O.2     1  UNL1       -0.2655
     17 N         139.6946  141.0876  169.7225 N.ar    1  UNL1       -0.2134
     18 C         138.4630  140.4412  170.2843 C.3     1  UNL1        0.1571
     19 N         140.4922  140.3873  168.6628 N.ar    1  UNL1       -0.1517
     20 C         144.6718  142.4768  160.8742 C.3     1  UNL1        0.1063
     21 C         143.5835  143.1026  160.0533 C.3     1  UNL1        0.1483
     22 O         143.8742  143.5800  158.6614 O.3     1  UNL1       -0.3786
     23 H         143.0684  143.9555  158.2734 H       1  UNL1        0.2108
     24 C         141.6502  140.8125  159.9203 C.3     1  UNL1        0.0306
     25 C         141.2378  142.1061  160.5579 C.ar    1  UNL1       -0.0238
     26 C         142.2044  143.2511  160.6244 C.ar    1  UNL1        0.0015
     27 C         141.7920  144.5447  161.2620 C.ar    1  UNL1       -0.0020
     28 C         140.4129  144.6933  161.8331 C.ar    1  UNL1        0.0060
     29 C         139.4463  143.5482  161.7666 C.ar    1  UNL1        0.0748
     30 C         139.8588  142.2546  161.1290 C.ar    1  UNL1        0.0233
     31 C         138.6982  141.3077  161.2090 C.3     1  UNL1        0.2352
     32 O         137.5685  142.0160  161.8961 O.3     1  UNL1       -0.4404
     33 C         138.0309  143.4007  162.2407 C.2     1  UNL1        0.3413
     34 O         137.2202  144.4532  162.9371 O.2     1  UNL1       -0.2449
@<TRIPOS>BOND
     1    24    25    1
     2    25    26   ar
     3    26    21    1
     4    21    22    1
     5    21    20    1
     6    20     1    1
     7     1     2    1
     8     2     3    1
     9     3     4    1
    10     4     5    1
    11     5     6    1
    12     4     7    1
    13     7     8    1
    14     8    12    1
    15    12    13   ar
    16    13    14   ar
    17    14    15   ar
    18    15    16    2
    19    15    17   ar
    20    17    18    1
    21    17    19   ar
    22     8     9    1
    23     9    10    1
    24    10    11    1
    25    26    27   ar
    26    27    28   ar
    27    28    29   ar
    28    29    30   ar
    29    30    31    1
    30    31    32    1
    31    32    33    1
    32    33    34    2
    33    30    25   ar
    34     6     1    1
    35    19    12   ar
    36    33    29    1
    37    11     4    1
    38    22    23    1
@<TRIPOS>MOLECULE
*****
 34 38 0 0 0
SMALL
GASTEIGER

@<TRIPOS>ATOM
      1 N         144.1370  142.1423  163.4536 N.3     1  UNL1       -0.2702
      2 C         144.1389  142.3596  161.9694 C.3     1  UNL1        0.0747
      3 C         143.1294  143.2762  161.3444 C.3     1  UNL1        0.0463
      4 C         142.1180  143.9755  162.2036 C.3     1  UNL1        0.1136
      5 C         142.1161  143.7581  163.6877 C.3     1  UNL1        0.0463
      6 C         143.1256  142.8415  164.3127 C.3     1  UNL1        0.0747
      7 C         142.1199  144.1929  160.7193 C.3     1  UNL1        0.1194
      8 N         141.1104  145.1095  160.0943 N.pl3   1  UNL1       -0.2869
      9 C         140.0990  145.8088  160.9535 C.3     1  UNL1        0.1243
     10 C         140.0971  145.5914  162.4376 C.3     1  UNL1        0.1634
     11 O         141.1066  144.6747  163.0627 O.3     1  UNL1       -0.3549
     12 C         141.1123  145.3269  158.6101 C.ar    1  UNL1        0.1518
     13 C         142.2042  144.7377  157.7672 C.ar    1  UNL1        0.0410
     14 C         142.2061  144.9550  156.2831 C.ar    1  UNL1        0.0651
     15 C         141.1161  145.7617  155.6419 C.ar    1  UNL1        0.2766
     16 O         141.1180  145.9791  154.1576 O.2     1  UNL1       -0.2655
     17 N         140.0242  146.3509  156.4848 N.ar    1  UNL1       -0.2134
     18 C         138.9342  147.1576  155.8435 C.3     1  UNL1        0.1571
     19 N         140.0223  146.1336  157.9689 N.ar    1  UNL1       -0.1517
     20 C         145.1466  141.2256  164.0786 C.3     1  UNL1        0.1063
     21 C         144.7764  139.8072  164.3963 C.3     1  UNL1        0.1483
     22 O         145.8444  138.7596  164.5051 O.3     1  UNL1       -0.3786
     23 H         145.4380  137.9040  164.7140 H       1  UNL1        0.2108
     24 C         143.2349  138.4773  162.1928 C.3     1  UNL1        0.0306
     25 C         142.5673  138.7713  163.5035 C.ar    1  UNL1       -0.0238
     26 C         143.3380  139.4363  164.6052 C.ar    1  UNL1        0.0015
     27 C         142.6704  139.7303  165.9159 C.ar    1  UNL1       -0.0020
     28 C         141.2321  139.3594  166.1249 C.ar    1  UNL1        0.0060
     29 C         140.4614  138.6945  165.0231 C.ar    1  UNL1        0.0748
     30 C         141.1290  138.4005  163.7125 C.ar    1  UNL1        0.0233
     31 C         140.1223  137.7408  162.8172 C.3     1  UNL1        0.2352
     32 O         138.8325  137.6272  163.5746 O.3     1  UNL1       -0.4404
     33 C         139.0421  138.2165  164.9379 C.2     1  UNL1        0.3413
     34 O         138.0131  138.3114  166.0252 O.2     1  UNL1       -0.2449
@<TRIPOS>BOND
     1    24    25    1
     2    25    26   ar
     3    26    21    1
     4    21    22    1
     5    21    20    1
     6    20     1    1
     7     1     2    1
     8     2     3    1
     9     3     4    1
    10     4     5    1
    11     5     6    1
    12     4     7    1
    13     7     8    1
    14     8    12    1
    15    12    13   ar
    16    13    14   ar
    17    14    15   ar
    18    15    16    2
    19    15    17   ar
    20    17    18    1
    21    17    19   ar
    22     8     9    1
    23     9    10    1
    24    10    11    1
    25    26    27   ar
    26    27    28   ar
    27    28    29   ar
    28    29    30   ar
    29    30    31    1
    30    31    32    1
    31    32    33    1
    32    33    34    2
    33    30    25   ar
    34     6     1    1
    35    19    12   ar
    36    33    29    1
    37    11     4    1
    38    22    23    1
