@<TRIPOS>MOLECULE
*****
 42 48 0 0 0
SMALL
GASTEIGER

@<TRIPOS>ATOM
      1 C         138.3269  140.5635  160.4123 C.ar    1  UNL1        0.0265
      2 C         138.1596  141.9633  160.9248 C.ar    1  UNL1        0.0376
      3 S         138.0824  141.9027  162.4216 S.2     1  UNL1       -0.0780
      4 C         138.2020  140.4655  162.8341 C.ar    1  UNL1        0.0711
      5 C         138.3531  139.6379  161.5923 C.ar    1  UNL1        0.0168
      6 C         142.5287  136.3089  155.7969 C.ar    1  UNL1       -0.0065
      7 C         141.6374  136.7595  154.6779 C.ar    1  UNL1       -0.0032
      8 C         140.5024  137.7000  154.9554 C.ar    1  UNL1       -0.0026
      9 C         140.2587  138.1899  156.3521 C.ar    1  UNL1        0.0019
     10 C         141.1501  137.7393  157.4711 C.ar    1  UNL1       -0.0200
     11 C         142.2851  136.7988  157.1936 C.ar    1  UNL1       -0.0071
     12 C         140.6685  138.3855  158.7362 C.3     1  UNL1        0.0519
     13 C         139.4794  139.2355  158.3990 C.2     1  UNL1        0.0074
     14 C         138.4469  140.1602  158.9725 C.2     1  UNL1        0.0976
     15 N         137.5556  140.6108  157.8534 N.2     1  UNL1       -0.1526
     16 N         138.0372  139.9646  156.5883 N.2     1  UNL1       -0.1678
     17 C         139.2261  139.1147  156.9255 C.3     1  UNL1        0.1672
     18 C         143.6638  135.3683  155.5194 C.3     1  UNL1        0.0992
     19 C         143.3055  129.6376  157.2603 C.3     1  UNL1        0.0897
     20 N         143.3951  131.0703  156.8251 N.3     1  UNL1       -0.2691
     21 C         142.5459  131.5642  155.6916 C.3     1  UNL1        0.0897
     22 C         142.6355  132.9970  155.2563 C.3     1  UNL1        0.0899
     23 N         143.5742  133.9356  155.9546 N.3     1  UNL1       -0.2665
     24 C         144.4234  133.4416  157.0882 C.3     1  UNL1        0.0899
     25 C         144.3338  132.0089  157.5234 C.3     1  UNL1        0.0897
     26 C         138.1752  139.9470  164.2414 C.1     1  UNL1       -0.0543
     27 C         138.1484  139.4285  165.6487 C.1     1  UNL1       -0.0388
     28 C         138.1216  138.9100  167.0559 C.3     1  UNL1        0.2814
     29 O         139.0290  139.5047  168.0918 O.3     1  UNL1       -0.4612
     30 C         140.2161  140.3192  167.6704 C.ar    1  UNL1        0.1400
     31 C         140.1118  141.8137  167.5951 C.ar    1  UNL1        0.0367
     32 C         141.2988  142.6281  167.1737 C.ar    1  UNL1        0.0002
     33 C         142.5901  141.9481  166.8276 C.ar    1  UNL1       -0.0059
     34 C         142.6945  140.4536  166.9028 C.ar    1  UNL1        0.0002
     35 C         141.5075  139.6392  167.3242 C.ar    1  UNL1        0.0367
     36 C         143.7773  142.7625  166.4062 C.3     1  UNL1        0.0993
     37 N         144.0952  142.9267  164.9495 N.3     1  UNL1       -0.2646
     38 C         144.8394  141.8489  164.2182 C.3     1  UNL1        0.1049
     39 C         145.1573  142.0131  162.7615 C.3     1  UNL1        0.1595
     40 O         144.7311  143.2550  162.0361 O.3     1  UNL1       -0.3508
     41 C         143.9869  144.3326  162.7674 C.3     1  UNL1        0.1595
     42 C         143.6690  144.1684  164.2241 C.3     1  UNL1        0.1049
@<TRIPOS>BOND
     1    19    20    1
     2    20    21    1
     3    21    22    1
     4    22    23    1
     5    23    18    1
     6    18     6    1
     7     6     7   ar
     8     7     8   ar
     9     8     9   ar
    10     9    10   ar
    11    10    11   ar
    12    10    12    1
    13    12    13    1
    14    13    14    2
    15    14     1    1
    16     1     2   ar
    17     2     3   ar
    18     3     4   ar
    19     4    26    1
    20    26    27    3
    21    27    28    1
    22    28    29    1
    23    29    30    1
    24    30    31   ar
    25    31    32   ar
    26    32    33   ar
    27    33    36    1
    28    36    37    1
    29    37    38    1
    30    38    39    1
    31    39    40    1
    32    40    41    1
    33    41    42    1
    34    33    34   ar
    35    34    35   ar
    36     4     5   ar
    37    14    15    1
    38    15    16    2
    39    16    17    1
    40    23    24    1
    41    24    25    1
    42    25    20    1
    43    11     6   ar
    44    17    13    1
    45    17     9    1
    46     5     1   ar
    47    35    30   ar
    48    42    37    1
@<TRIPOS>MOLECULE
*****
 42 48 0 0 0
SMALL
GASTEIGER

@<TRIPOS>ATOM
      1 C         140.8399  144.5083  161.3805 C.ar    1  UNL1        0.0265
      2 C         139.4942  145.0544  161.7559 C.ar    1  UNL1        0.0376
      3 S         139.2417  144.7158  163.1952 S.2     1  UNL1       -0.0780
      4 C         140.4314  143.9605  163.7094 C.ar    1  UNL1        0.0711
      5 C         141.4191  143.8323  162.5878 C.ar    1  UNL1        0.0168
      6 C         144.4173  140.3504  156.1869 C.ar    1  UNL1       -0.0065
      7 C         144.5405  141.6003  155.3669 C.ar    1  UNL1       -0.0032
      8 C         143.9816  142.8934  155.8821 C.ar    1  UNL1       -0.0026
      9 C         143.2995  142.9366  157.2174 C.ar    1  UNL1        0.0019
     10 C         143.1763  141.6866  158.0374 C.ar    1  UNL1       -0.0200
     11 C         143.7352  140.3936  157.5222 C.ar    1  UNL1       -0.0071
     12 C         142.4568  142.0341  159.3069 C.3     1  UNL1        0.0519
     13 C         142.1353  143.4989  159.2715 C.2     1  UNL1        0.0074
     14 C         141.4920  144.6189  160.0342 C.2     1  UNL1        0.0976
     15 N         141.6152  145.8688  159.2142 N.2     1  UNL1       -0.1526
     16 N         142.3347  145.5213  157.9447 N.2     1  UNL1       -0.1678
     17 C         142.6561  144.0566  157.9801 C.3     1  UNL1        0.1672
     18 C         144.9762  139.0572  155.6717 C.3     1  UNL1        0.0992
     19 C         141.3136  134.9400  153.2981 C.3     1  UNL1        0.0897
     20 N         142.2292  135.9693  153.8915 N.3     1  UNL1       -0.2691
     21 C         143.2188  135.5735  154.9470 C.3     1  UNL1        0.0897
     22 C         144.1345  136.6028  155.5404 C.3     1  UNL1        0.0899
     23 N         144.0606  138.0279  155.0783 N.3     1  UNL1       -0.2665
     24 C         143.0710  138.4237  154.0228 C.3     1  UNL1        0.0899
     25 C         142.1553  137.3944  153.4294 C.3     1  UNL1        0.0897
     26 C         140.6031  143.4271  165.1007 C.1     1  UNL1       -0.0543
     27 C         140.7749  142.8937  166.4921 C.1     1  UNL1       -0.0388
     28 C         140.9466  142.3603  167.8835 C.3     1  UNL1        0.2814
     29 O         140.8839  140.8826  168.1333 O.3     1  UNL1       -0.4612
     30 C         140.9008  139.9253  166.9785 C.ar    1  UNL1        0.1400
     31 C         139.6103  139.4329  166.3937 C.ar    1  UNL1        0.0367
     32 C         139.6271  138.4757  165.2389 C.ar    1  UNL1        0.0002
     33 C         140.9344  138.0110  164.6690 C.ar    1  UNL1       -0.0059
     34 C         142.2250  138.5034  165.2539 C.ar    1  UNL1        0.0002
     35 C         142.2081  139.4606  166.4086 C.ar    1  UNL1        0.0367
     36 C         140.9513  137.0537  163.5142 C.3     1  UNL1        0.0993
     37 N         140.9077  137.5741  162.1081 N.3     1  UNL1       -0.2646
     38 C         142.1767  137.7143  161.3206 C.3     1  UNL1        0.1049
     39 C         142.1331  138.2347  159.9144 C.3     1  UNL1        0.1595
     40 O         140.8205  138.6148  159.2957 O.3     1  UNL1       -0.3508
     41 C         139.5516  138.4745  160.0832 C.3     1  UNL1        0.1595
     42 C         139.5952  137.9542  161.4894 C.3     1  UNL1        0.1049
@<TRIPOS>BOND
     1    19    20    1
     2    20    21    1
     3    21    22    1
     4    22    23    1
     5    23    18    1
     6    18     6    1
     7     6     7   ar
     8     7     8   ar
     9     8     9   ar
    10     9    10   ar
    11    10    11   ar
    12    10    12    1
    13    12    13    1
    14    13    14    2
    15    14     1    1
    16     1     2   ar
    17     2     3   ar
    18     3     4   ar
    19     4    26    1
    20    26    27    3
    21    27    28    1
    22    28    29    1
    23    29    30    1
    24    30    31   ar
    25    31    32   ar
    26    32    33   ar
    27    33    36    1
    28    36    37    1
    29    37    38    1
    30    38    39    1
    31    39    40    1
    32    40    41    1
    33    41    42    1
    34    33    34   ar
    35    34    35   ar
    36     4     5   ar
    37    14    15    1
    38    15    16    2
    39    16    17    1
    40    23    24    1
    41    24    25    1
    42    25    20    1
    43    11     6   ar
    44    17    13    1
    45    17     9    1
    46     5     1   ar
    47    35    30   ar
    48    42    37    1
@<TRIPOS>MOLECULE
*****
 42 48 0 0 0
SMALL
GASTEIGER

@<TRIPOS>ATOM
      1 C         141.5164  144.4441  161.6850 C.ar    1  UNL1        0.0265
      2 C         142.8499  144.8222  162.2586 C.ar    1  UNL1        0.0376
      3 S         142.8603  144.4285  163.7059 S.2     1  UNL1       -0.0780
      4 C         141.5333  143.8072  164.0270 C.ar    1  UNL1        0.0711
      5 C         140.7027  143.8168  162.7780 C.ar    1  UNL1        0.0168
      6 C         137.2332  141.3255  156.3010 C.ar    1  UNL1       -0.0065
      7 C         137.6287  142.4701  155.4158 C.ar    1  UNL1       -0.0032
      8 C         138.5487  143.5355  155.9337 C.ar    1  UNL1       -0.0026
      9 C         139.0732  143.4565  157.3368 C.ar    1  UNL1        0.0019
     10 C         138.6776  142.3120  158.2220 C.ar    1  UNL1       -0.0200
     11 C         137.7576  141.2465  157.7041 C.ar    1  UNL1       -0.0071
     12 C         139.3486  142.5000  159.5503 C.3     1  UNL1        0.0519
     13 C         140.1588  143.7607  159.4861 C.2     1  UNL1        0.0074
     14 C         141.0742  144.6561  160.2674 C.2     1  UNL1        0.0976
     15 N         141.4697  145.8006  159.3823 N.2     1  UNL1       -0.1526
     16 N         140.7988  145.6126  158.0539 N.2     1  UNL1       -0.1678
     17 C         139.9886  144.3519  158.1181 C.3     1  UNL1        0.1672
     18 C         136.3131  140.2600  155.7831 C.3     1  UNL1        0.0992
     19 C         130.3873  141.1960  155.6951 C.3     1  UNL1        0.0897
     20 N         131.8687  140.9620  155.7171 N.3     1  UNL1       -0.2691
     21 C         132.4851  140.1609  156.8253 C.3     1  UNL1        0.0897
     22 C         133.9666  139.9269  156.8474 C.3     1  UNL1        0.0899
     23 N         134.8317  140.4940  155.7611 N.3     1  UNL1       -0.2665
     24 C         134.2153  141.2951  154.6528 C.3     1  UNL1        0.0899
     25 C         132.7338  141.5291  154.6308 C.3     1  UNL1        0.0897
     26 C         141.1111  143.2704  165.3624 C.1     1  UNL1       -0.0543
     27 C         140.6889  142.7337  166.6980 C.1     1  UNL1       -0.0388
     28 C         140.2666  142.1969  168.0335 C.3     1  UNL1        0.2814
     29 O         140.0234  140.7271  168.2083 O.3     1  UNL1       -0.4612
     30 C         140.2116  139.7928  167.0499 C.ar    1  UNL1        0.1400
     31 C         139.0170  139.2206  166.3461 C.ar    1  UNL1        0.0367
     32 C         139.2052  138.2863  165.1878 C.ar    1  UNL1        0.0002
     33 C         140.5880  137.9243  164.7334 C.ar    1  UNL1       -0.0059
     34 C         141.7827  138.4965  165.4372 C.ar    1  UNL1        0.0002
     35 C         141.5945  139.4308  166.5955 C.ar    1  UNL1        0.0367
     36 C         140.7763  136.9900  163.5750 C.3     1  UNL1        0.0993
     37 N         140.8179  137.5289  162.1758 N.3     1  UNL1       -0.2646
     38 C         142.1306  137.6633  161.4625 C.3     1  UNL1        0.1049
     39 C         142.1721  138.2023  160.0633 C.3     1  UNL1        0.1595
     40 O         140.9009  138.6069  159.3774 O.3     1  UNL1       -0.3508
     41 C         139.5883  138.4725  160.0907 C.3     1  UNL1        0.1595
     42 C         139.5467  137.9335  161.4899 C.3     1  UNL1        0.1049
@<TRIPOS>BOND
     1    19    20    1
     2    20    21    1
     3    21    22    1
     4    22    23    1
     5    23    18    1
     6    18     6    1
     7     6     7   ar
     8     7     8   ar
     9     8     9   ar
    10     9    10   ar
    11    10    11   ar
    12    10    12    1
    13    12    13    1
    14    13    14    2
    15    14     1    1
    16     1     2   ar
    17     2     3   ar
    18     3     4   ar
    19     4    26    1
    20    26    27    3
    21    27    28    1
    22    28    29    1
    23    29    30    1
    24    30    31   ar
    25    31    32   ar
    26    32    33   ar
    27    33    36    1
    28    36    37    1
    29    37    38    1
    30    38    39    1
    31    39    40    1
    32    40    41    1
    33    41    42    1
    34    33    34   ar
    35    34    35   ar
    36     4     5   ar
    37    14    15    1
    38    15    16    2
    39    16    17    1
    40    23    24    1
    41    24    25    1
    42    25    20    1
    43    11     6   ar
    44    17    13    1
    45    17     9    1
    46     5     1   ar
    47    35    30   ar
    48    42    37    1
@<TRIPOS>MOLECULE
*****
 42 48 0 0 0
SMALL
GASTEIGER

@<TRIPOS>ATOM
      1 C         141.0821  144.8009  159.8301 C.ar    1  UNL1        0.0265
      2 C         140.5845  145.4119  161.1065 C.ar    1  UNL1        0.0376
      3 S         141.4522  144.9177  162.2259 S.2     1  UNL1       -0.0780
      4 C         142.4860  144.0014  161.6412 C.ar    1  UNL1        0.0711
      5 C         142.2572  143.9293  160.1606 C.ar    1  UNL1        0.0168
      6 C         136.3224  141.7034  154.8492 C.ar    1  UNL1       -0.0065
      7 C         136.6255  142.8583  153.9412 C.ar    1  UNL1       -0.0032
      8 C         137.5848  143.9249  154.3793 C.ar    1  UNL1       -0.0026
      9 C         138.2410  143.8367  155.7252 C.ar    1  UNL1        0.0019
     10 C         137.9379  142.6818  156.6331 C.ar    1  UNL1       -0.0200
     11 C         136.9786  141.6152  156.1951 C.ar    1  UNL1       -0.0071
     12 C         138.7314  142.8622  157.8932 C.3     1  UNL1        0.0519
     13 C         139.5249  144.1286  157.7641 C.2     1  UNL1        0.0074
     14 C         140.5056  145.0227  158.4631 C.2     1  UNL1        0.0976
     15 N         140.8087  146.1776  157.5552 N.2     1  UNL1       -0.1526
     16 N         140.0153  145.9972  156.2951 N.2     1  UNL1       -0.1678
     17 C         139.2218  144.7309  156.4242 C.3     1  UNL1        0.1672
     18 C         135.3630  140.6367  154.4111 C.3     1  UNL1        0.0992
     19 C         130.3651  139.6158  157.5701 C.3     1  UNL1        0.0897
     20 N         131.6146  139.8710  156.7804 N.3     1  UNL1       -0.2691
     21 C         132.7636  138.9104  156.8634 C.3     1  UNL1        0.0897
     22 C         134.0131  139.1656  156.0736 C.3     1  UNL1        0.0899
     23 N         134.1135  140.3815  155.2009 N.3     1  UNL1       -0.2665
     24 C         132.9644  141.3421  155.1179 C.3     1  UNL1        0.0899
     25 C         131.7150  141.0869  155.9076 C.3     1  UNL1        0.0897
     26 C         143.5599  143.2834  162.4034 C.1     1  UNL1       -0.0543
     27 C         144.6340  142.5653  163.1657 C.1     1  UNL1       -0.0388
     28 C         145.7079  141.8473  163.9279 C.3     1  UNL1        0.2814
     29 O         145.5413  140.3969  164.2723 O.3     1  UNL1       -0.4612
     30 C         144.3090  139.6598  163.8385 C.ar    1  UNL1        0.1400
     31 C         144.2688  138.9904  162.4967 C.ar    1  UNL1        0.0367
     32 C         143.0365  138.2533  162.0629 C.ar    1  UNL1        0.0002
     33 C         141.8445  138.1856  162.9709 C.ar    1  UNL1       -0.0059
     34 C         141.8847  138.8550  164.3126 C.ar    1  UNL1        0.0002
     35 C         143.1169  139.5921  164.7464 C.ar    1  UNL1        0.0367
     36 C         140.6121  137.4485  162.5371 C.3     1  UNL1        0.0993
     37 N         139.6118  138.1204  161.6438 N.3     1  UNL1       -0.2646
     38 C         138.2231  138.3903  162.1426 C.3     1  UNL1        0.1049
     39 C         137.2227  139.0622  161.2494 C.3     1  UNL1        0.1595
     40 O         137.6111  139.4642  159.8574 O.3     1  UNL1       -0.3508
     41 C         138.9997  139.1943  159.3587 C.3     1  UNL1        0.1595
     42 C         140.0001  138.5224  160.2519 C.3     1  UNL1        0.1049
@<TRIPOS>BOND
     1    19    20    1
     2    20    21    1
     3    21    22    1
     4    22    23    1
     5    23    18    1
     6    18     6    1
     7     6     7   ar
     8     7     8   ar
     9     8     9   ar
    10     9    10   ar
    11    10    11   ar
    12    10    12    1
    13    12    13    1
    14    13    14    2
    15    14     1    1
    16     1     2   ar
    17     2     3   ar
    18     3     4   ar
    19     4    26    1
    20    26    27    3
    21    27    28    1
    22    28    29    1
    23    29    30    1
    24    30    31   ar
    25    31    32   ar
    26    32    33   ar
    27    33    36    1
    28    36    37    1
    29    37    38    1
    30    38    39    1
    31    39    40    1
    32    40    41    1
    33    41    42    1
    34    33    34   ar
    35    34    35   ar
    36     4     5   ar
    37    14    15    1
    38    15    16    2
    39    16    17    1
    40    23    24    1
    41    24    25    1
    42    25    20    1
    43    11     6   ar
    44    17    13    1
    45    17     9    1
    46     5     1   ar
    47    35    30   ar
    48    42    37    1
@<TRIPOS>MOLECULE
*****
 42 48 0 0 0
SMALL
GASTEIGER

@<TRIPOS>ATOM
      1 C         141.3571  139.7193  158.1522 C.ar    1  UNL1        0.0265
      2 C         142.5304  139.7097  159.0867 C.ar    1  UNL1        0.0376
      3 S         142.4911  140.9739  159.8929 S.2     1  UNL1       -0.0780
      4 C         141.2936  141.7649  159.4568 C.ar    1  UNL1        0.0711
      5 C         140.5927  140.9894  158.3809 C.ar    1  UNL1        0.0168
      6 C         143.5607  132.8760  155.8344 C.ar    1  UNL1       -0.0065
      7 C         142.4342  132.9210  154.8450 C.ar    1  UNL1       -0.0032
      8 C         141.5346  134.1198  154.7869 C.ar    1  UNL1       -0.0026
      9 C         141.7614  135.2736  155.7183 C.ar    1  UNL1        0.0019
     10 C         142.8879  135.2285  156.7077 C.ar    1  UNL1       -0.0200
     11 C         143.7875  134.0297  156.7658 C.ar    1  UNL1       -0.0071
     12 C         142.8665  136.5063  157.4930 C.3     1  UNL1        0.0519
     13 C         141.7268  137.3412  156.9889 C.2     1  UNL1        0.0074
     14 C         141.0092  138.6469  157.1627 C.2     1  UNL1        0.0976
     15 N         139.8827  138.6920  156.1733 N.2     1  UNL1       -0.1526
     16 N         139.9041  137.4141  155.3880 N.2     1  UNL1       -0.1678
     17 C         141.0437  136.5793  155.8921 C.3     1  UNL1        0.1672
     18 C         144.4604  131.6771  155.8925 C.3     1  UNL1        0.0992
     19 C         142.8694  126.8864  159.1355 C.3     1  UNL1        0.0897
     20 N         143.2671  128.0840  158.3247 N.3     1  UNL1       -0.2691
     21 C         142.7226  128.2661  156.9390 C.3     1  UNL1        0.0897
     22 C         143.1204  129.4638  156.1282 C.3     1  UNL1        0.0899
     23 N         144.0627  130.4794  156.7032 N.3     1  UNL1       -0.2665
     24 C         144.6072  130.2973  158.0890 C.3     1  UNL1        0.0899
     25 C         144.2094  129.0997  158.8997 C.3     1  UNL1        0.0897
     26 C         140.8710  143.0973  160.0009 C.1     1  UNL1       -0.0543
     27 C         140.4485  144.4297  160.5451 C.1     1  UNL1       -0.0388
     28 C         140.0260  145.7622  161.0892 C.3     1  UNL1        0.2814
     29 O         139.5915  145.8845  162.5197 O.3     1  UNL1       -0.4612
     30 C         139.8938  144.7832  163.4922 C.ar    1  UNL1        0.1400
     31 C         141.2945  144.5873  163.9919 C.ar    1  UNL1        0.0367
     32 C         141.5968  143.4860  164.9643 C.ar    1  UNL1        0.0002
     33 C         140.4983  142.5805  165.4370 C.ar    1  UNL1       -0.0059
     34 C         139.0976  142.7764  164.9373 C.ar    1  UNL1        0.0002
     35 C         138.7954  143.8777  163.9649 C.ar    1  UNL1        0.0367
     36 C         140.8006  141.4792  166.4095 C.3     1  UNL1        0.0993
     37 N         140.3343  141.5851  167.8313 N.3     1  UNL1       -0.2646
     38 C         140.5459  142.8574  168.5972 C.3     1  UNL1        0.1049
     39 C         140.0796  142.9634  170.0189 C.3     1  UNL1        0.1595
     40 O         139.4017  141.7970  170.6747 O.3     1  UNL1       -0.3508
     41 C         139.1901  140.5248  169.9089 C.3     1  UNL1        0.1595
     42 C         139.6564  140.4188  168.4871 C.3     1  UNL1        0.1049
@<TRIPOS>BOND
     1    19    20    1
     2    20    21    1
     3    21    22    1
     4    22    23    1
     5    23    18    1
     6    18     6    1
     7     6     7   ar
     8     7     8   ar
     9     8     9   ar
    10     9    10   ar
    11    10    11   ar
    12    10    12    1
    13    12    13    1
    14    13    14    2
    15    14     1    1
    16     1     2   ar
    17     2     3   ar
    18     3     4   ar
    19     4    26    1
    20    26    27    3
    21    27    28    1
    22    28    29    1
    23    29    30    1
    24    30    31   ar
    25    31    32   ar
    26    32    33   ar
    27    33    36    1
    28    36    37    1
    29    37    38    1
    30    38    39    1
    31    39    40    1
    32    40    41    1
    33    41    42    1
    34    33    34   ar
    35    34    35   ar
    36     4     5   ar
    37    14    15    1
    38    15    16    2
    39    16    17    1
    40    23    24    1
    41    24    25    1
    42    25    20    1
    43    11     6   ar
    44    17    13    1
    45    17     9    1
    46     5     1   ar
    47    35    30   ar
    48    42    37    1
@<TRIPOS>MOLECULE
*****
 42 48 0 0 0
SMALL
GASTEIGER

@<TRIPOS>ATOM
      1 C         140.0462  144.5323  163.2953 C.ar    1  UNL1        0.0265
      2 C         139.1559  144.8680  164.4549 C.ar    1  UNL1        0.0376
      3 S         139.5200  143.9645  165.5956 S.2     1  UNL1       -0.0780
      4 C         140.6353  143.0704  165.1409 C.ar    1  UNL1        0.0711
      5 C         140.9605  143.4213  163.7193 C.ar    1  UNL1        0.0168
      6 C         142.8586  143.8168  156.3212 C.ar    1  UNL1       -0.0065
      7 C         142.1003  145.0593  155.9593 C.ar    1  UNL1       -0.0032
      8 C         141.2659  145.7564  156.9926 C.ar    1  UNL1       -0.0026
      9 C         141.1898  145.2110  158.3879 C.ar    1  UNL1        0.0019
     10 C         141.9481  143.9684  158.7498 C.ar    1  UNL1       -0.0200
     11 C         142.7825  143.2713  157.7165 C.ar    1  UNL1       -0.0071
     12 C         141.6825  143.6678  160.1951 C.3     1  UNL1        0.0519
     13 C         140.7600  144.7246  160.7265 C.2     1  UNL1        0.0074
     14 C         140.0258  145.1918  161.9482 C.2     1  UNL1        0.0976
     15 N         139.2675  146.4344  161.5863 N.2     1  UNL1       -0.1526
     16 N         139.5331  146.7350  160.1410 N.2     1  UNL1       -0.1678
     17 C         140.4555  145.6783  159.6096 C.3     1  UNL1        0.1672
     18 C         143.6930  143.1196  155.2879 C.3     1  UNL1        0.0992
     19 C         144.2168  137.1434  155.3880 C.3     1  UNL1        0.0897
     20 N         144.0859  138.6374  155.3629 N.3     1  UNL1       -0.2691
     21 C         142.7331  139.2694  155.2195 C.3     1  UNL1        0.0897
     22 C         142.6021  140.7635  155.1944 C.3     1  UNL1        0.0899
     23 N         143.8239  141.6255  155.3129 N.3     1  UNL1       -0.2665
     24 C         145.1767  140.9935  155.4563 C.3     1  UNL1        0.0899
     25 C         145.3077  139.4995  155.4814 C.3     1  UNL1        0.0897
     26 C         141.3074  142.0113  165.9634 C.1     1  UNL1       -0.0543
     27 C         141.9796  140.9521  166.7859 C.1     1  UNL1       -0.0388
     28 C         142.6517  139.8931  167.6085 C.3     1  UNL1        0.2814
     29 O         143.1888  138.6583  166.9475 O.3     1  UNL1       -0.4612
     30 C         142.9814  138.4440  165.4774 C.ar    1  UNL1        0.1400
     31 C         143.9686  138.9962  164.4923 C.ar    1  UNL1        0.0367
     32 C         143.7613  138.7819  163.0223 C.ar    1  UNL1        0.0002
     33 C         142.5667  138.0153  162.5373 C.ar    1  UNL1       -0.0059
     34 C         141.5794  137.4631  163.5224 C.ar    1  UNL1        0.0002
     35 C         141.7868  137.6774  164.9924 C.ar    1  UNL1        0.0367
     36 C         142.3592  137.8009  161.0672 C.3     1  UNL1        0.0993
     37 N         141.3285  138.6038  160.3304 N.3     1  UNL1       -0.2646
     38 C         139.8769  138.4643  160.6821 C.3     1  UNL1        0.1049
     39 C         138.8462  139.2671  159.9452 C.3     1  UNL1        0.1595
     40 O         139.2670  140.2094  158.8566 O.3     1  UNL1       -0.3508
     41 C         140.7185  140.3489  158.5049 C.3     1  UNL1        0.1595
     42 C         141.7492  139.5460  159.2418 C.3     1  UNL1        0.1049
@<TRIPOS>BOND
     1    19    20    1
     2    20    21    1
     3    21    22    1
     4    22    23    1
     5    23    18    1
     6    18     6    1
     7     6     7   ar
     8     7     8   ar
     9     8     9   ar
    10     9    10   ar
    11    10    11   ar
    12    10    12    1
    13    12    13    1
    14    13    14    2
    15    14     1    1
    16     1     2   ar
    17     2     3   ar
    18     3     4   ar
    19     4    26    1
    20    26    27    3
    21    27    28    1
    22    28    29    1
    23    29    30    1
    24    30    31   ar
    25    31    32   ar
    26    32    33   ar
    27    33    36    1
    28    36    37    1
    29    37    38    1
    30    38    39    1
    31    39    40    1
    32    40    41    1
    33    41    42    1
    34    33    34   ar
    35    34    35   ar
    36     4     5   ar
    37    14    15    1
    38    15    16    2
    39    16    17    1
    40    23    24    1
    41    24    25    1
    42    25    20    1
    43    11     6   ar
    44    17    13    1
    45    17     9    1
    46     5     1   ar
    47    35    30   ar
    48    42    37    1
@<TRIPOS>MOLECULE
*****
 42 48 0 0 0
SMALL
GASTEIGER

@<TRIPOS>ATOM
      1 C         142.5811  138.9460  159.8665 C.ar    1  UNL1        0.0265
      2 C         143.6419  140.0020  159.9657 C.ar    1  UNL1        0.0376
      3 S         144.0936  140.0724  161.3943 S.2     1  UNL1       -0.0780
      4 C         143.3120  139.0601  162.1781 C.ar    1  UNL1        0.0711
      5 C         142.3772  138.3640  161.2338 C.ar    1  UNL1        0.0168
      6 C         142.4904  133.5859  154.5449 C.ar    1  UNL1       -0.0065
      7 C         141.3445  134.3221  153.9165 C.ar    1  UNL1       -0.0032
      8 C         140.8308  135.5848  154.5422 C.ar    1  UNL1       -0.0026
      9 C         141.4630  136.1113  155.7964 C.ar    1  UNL1        0.0019
     10 C         142.6089  135.3752  156.4249 C.ar    1  UNL1       -0.0200
     11 C         143.1226  134.1125  155.7991 C.ar    1  UNL1       -0.0071
     12 C         143.0281  136.1302  157.6513 C.3     1  UNL1        0.0519
     13 C         142.1412  137.3330  157.7809 C.2     1  UNL1        0.0074
     14 C         141.8522  138.5430  158.6190 C.2     1  UNL1        0.0976
     15 N         140.7063  139.2791  157.9906 N.2     1  UNL1       -0.1526
     16 N         140.2871  138.5241  156.7641 N.2     1  UNL1       -0.1678
     17 C         141.1739  137.3214  156.6345 C.3     1  UNL1        0.1672
     18 C         143.0041  132.3231  153.9191 C.3     1  UNL1        0.0992
     19 C         143.5917  127.3562  157.2333 C.3     1  UNL1        0.0897
     20 N         143.4448  128.5979  156.4047 N.3     1  UNL1       -0.2691
     21 C         144.6438  129.4500  156.1115 C.3     1  UNL1        0.0897
     22 C         144.4970  130.6918  155.2829 C.3     1  UNL1        0.0899
     23 N         143.1510  131.0814  154.7476 N.3     1  UNL1       -0.2665
     24 C         141.9519  130.2292  155.0409 C.3     1  UNL1        0.0899
     25 C         142.0988  128.9875  155.8694 C.3     1  UNL1        0.0897
     26 C         143.4422  138.7911  163.6480 C.1     1  UNL1       -0.0543
     27 C         143.5725  138.5222  165.1179 C.1     1  UNL1       -0.0388
     28 C         143.7028  138.2532  166.5878 C.3     1  UNL1        0.2814
     29 O         142.8637  139.0186  167.5676 O.3     1  UNL1       -0.4612
     30 C         142.0146  140.1617  167.0957 C.ar    1  UNL1        0.1400
     31 C         142.6361  141.5033  166.8434 C.ar    1  UNL1        0.0367
     32 C         141.7871  142.6463  166.3715 C.ar    1  UNL1        0.0002
     33 C         140.3166  142.4476  166.1519 C.ar    1  UNL1       -0.0059
     34 C         139.6952  141.1059  166.4042 C.ar    1  UNL1        0.0002
     35 C         140.5442  139.9630  166.8761 C.ar    1  UNL1        0.0367
     36 C         139.4675  143.5907  165.6800 C.3     1  UNL1        0.0993
     37 N         139.2172  143.7835  164.2136 N.3     1  UNL1       -0.2646
     38 C         138.2104  142.9262  163.5055 C.3     1  UNL1        0.1049
     39 C         137.9600  143.1191  162.0392 C.3     1  UNL1        0.1595
     40 O         138.7166  144.1693  161.2809 O.3     1  UNL1       -0.3508
     41 C         139.7234  145.0265  161.9891 C.3     1  UNL1        0.1595
     42 C         139.9737  144.8336  163.4554 C.3     1  UNL1        0.1049
@<TRIPOS>BOND
     1    19    20    1
     2    20    21    1
     3    21    22    1
     4    22    23    1
     5    23    18    1
     6    18     6    1
     7     6     7   ar
     8     7     8   ar
     9     8     9   ar
    10     9    10   ar
    11    10    11   ar
    12    10    12    1
    13    12    13    1
    14    13    14    2
    15    14     1    1
    16     1     2   ar
    17     2     3   ar
    18     3     4   ar
    19     4    26    1
    20    26    27    3
    21    27    28    1
    22    28    29    1
    23    29    30    1
    24    30    31   ar
    25    31    32   ar
    26    32    33   ar
    27    33    36    1
    28    36    37    1
    29    37    38    1
    30    38    39    1
    31    39    40    1
    32    40    41    1
    33    41    42    1
    34    33    34   ar
    35    34    35   ar
    36     4     5   ar
    37    14    15    1
    38    15    16    2
    39    16    17    1
    40    23    24    1
    41    24    25    1
    42    25    20    1
    43    11     6   ar
    44    17    13    1
    45    17     9    1
    46     5     1   ar
    47    35    30   ar
    48    42    37    1
@<TRIPOS>MOLECULE
*****
 42 48 0 0 0
SMALL
GASTEIGER

@<TRIPOS>ATOM
      1 C         141.3101  139.4458  157.9552 C.ar    1  UNL1        0.0265
      2 C         142.3109  139.3782  159.0705 C.ar    1  UNL1        0.0376
      3 S         142.2482  140.6709  159.8286 S.2     1  UNL1       -0.0780
      4 C         141.2086  141.5376  159.1818 C.ar    1  UNL1        0.0711
      5 C         140.6288  140.7804  158.0240 C.ar    1  UNL1        0.0168
      6 C         143.7196  132.6149  155.8125 C.ar    1  UNL1       -0.0065
      7 C         142.6619  132.6481  154.7494 C.ar    1  UNL1       -0.0032
      8 C         141.7586  133.8393  154.6271 C.ar    1  UNL1       -0.0026
      9 C         141.9130  134.9973  155.5680 C.ar    1  UNL1        0.0019
     10 C         142.9706  134.9641  156.6311 C.ar    1  UNL1       -0.0200
     11 C         143.8739  133.7728  156.7534 C.ar    1  UNL1       -0.0071
     12 C         142.8862  136.2437  157.4092 C.3     1  UNL1        0.0519
     13 C         141.7763  137.0679  156.8269 C.2     1  UNL1        0.0074
     14 C         141.0382  138.3681  156.9479 C.2     1  UNL1        0.0976
     15 N         139.9806  138.4013  155.8848 N.2     1  UNL1       -0.1526
     16 N         140.0650  137.1217  155.1068 N.2     1  UNL1       -0.1678
     17 C         141.1748  136.2976  155.6890 C.3     1  UNL1        0.1672
     18 C         144.6229  131.4236  155.9347 C.3     1  UNL1        0.0992
     19 C         142.9273  126.6972  159.2188 C.3     1  UNL1        0.0897
     20 N         143.3512  127.8788  158.3978 N.3     1  UNL1       -0.2691
     21 C         144.2327  128.9326  158.9995 C.3     1  UNL1        0.0897
     22 C         144.6567  130.1143  158.1785 C.3     1  UNL1        0.0899
     23 N         144.1990  130.2420  156.7558 N.3     1  UNL1       -0.2665
     24 C         143.3174  129.1880  156.1540 C.3     1  UNL1        0.0899
     25 C         142.8935  128.0065  156.9751 C.3     1  UNL1        0.0897
     26 C         140.8175  142.9189  159.6166 C.1     1  UNL1       -0.0543
     27 C         140.4264  144.3002  160.0514 C.1     1  UNL1       -0.0388
     28 C         140.0353  145.6815  160.4861 C.3     1  UNL1        0.2814
     29 O         139.2691  145.8779  161.7607 O.3     1  UNL1       -0.4612
     30 C         139.2598  144.8000  162.8038 C.ar    1  UNL1        0.1400
     31 C         138.0727  143.8924  162.9339 C.ar    1  UNL1        0.0367
     32 C         138.0633  142.8145  163.9770 C.ar    1  UNL1        0.0002
     33 C         139.2412  142.6442  164.8900 C.ar    1  UNL1       -0.0059
     34 C         140.4283  143.5518  164.7599 C.ar    1  UNL1        0.0002
     35 C         140.4377  144.6297  163.7169 C.ar    1  UNL1        0.0367
     36 C         139.2319  141.5663  165.9332 C.3     1  UNL1        0.0993
     37 N         139.5953  140.1594  165.5610 N.3     1  UNL1       -0.2646
     38 C         141.0266  139.8009  165.2907 C.3     1  UNL1        0.1049
     39 C         141.3900  138.3940  164.9185 C.3     1  UNL1        0.1595
     40 O         140.3220  137.3455  164.8168 O.3     1  UNL1       -0.3508
     41 C         138.8908  137.7039  165.0871 C.3     1  UNL1        0.1595
     42 C         138.5275  139.1109  165.4593 C.3     1  UNL1        0.1049
@<TRIPOS>BOND
     1    19    20    1
     2    20    21    1
     3    21    22    1
     4    22    23    1
     5    23    18    1
     6    18     6    1
     7     6     7   ar
     8     7     8   ar
     9     8     9   ar
    10     9    10   ar
    11    10    11   ar
    12    10    12    1
    13    12    13    1
    14    13    14    2
    15    14     1    1
    16     1     2   ar
    17     2     3   ar
    18     3     4   ar
    19     4    26    1
    20    26    27    3
    21    27    28    1
    22    28    29    1
    23    29    30    1
    24    30    31   ar
    25    31    32   ar
    26    32    33   ar
    27    33    36    1
    28    36    37    1
    29    37    38    1
    30    38    39    1
    31    39    40    1
    32    40    41    1
    33    41    42    1
    34    33    34   ar
    35    34    35   ar
    36     4     5   ar
    37    14    15    1
    38    15    16    2
    39    16    17    1
    40    23    24    1
    41    24    25    1
    42    25    20    1
    43    11     6   ar
    44    17    13    1
    45    17     9    1
    46     5     1   ar
    47    35    30   ar
    48    42    37    1
@<TRIPOS>MOLECULE
*****
 42 48 0 0 0
SMALL
GASTEIGER

@<TRIPOS>ATOM
      1 C         141.5888  138.5741  157.7159 C.ar    1  UNL1        0.0265
      2 C         140.3981  139.1422  158.4299 C.ar    1  UNL1        0.0376
      3 S         140.8980  140.0173  159.5409 S.2     1  UNL1       -0.0780
      4 C         142.3975  139.9901  159.5135 C.ar    1  UNL1        0.0711
      5 C         142.8244  139.0982  158.3856 C.ar    1  UNL1        0.0168
      6 C         143.8766  131.7179  155.5211 C.ar    1  UNL1       -0.0065
      7 C         143.2249  131.9962  154.1991 C.ar    1  UNL1       -0.0032
      8 C         142.5301  133.3050  153.9663 C.ar    1  UNL1       -0.0026
      9 C         142.4869  134.3354  155.0554 C.ar    1  UNL1        0.0019
     10 C         143.1386  134.0571  156.3775 C.ar    1  UNL1       -0.0200
     11 C         143.8334  132.7483  156.6103 C.ar    1  UNL1       -0.0071
     12 C         142.9347  135.2556  157.2562 C.3     1  UNL1        0.0519
     13 C         142.1571  136.2746  156.4772 C.2     1  UNL1        0.0074
     14 C         141.5504  137.6451  156.5388 C.2     1  UNL1        0.0976
     15 N         140.8988  137.9234  155.2168 N.2     1  UNL1       -0.1526
     16 N         141.1027  136.7250  154.3381 N.2     1  UNL1       -0.1678
     17 C         141.8803  135.7060  155.1170 C.3     1  UNL1        0.1672
     18 C         144.5715  130.4090  155.7541 C.3     1  UNL1        0.0992
     19 C         142.7428  126.7864  160.1736 C.3     1  UNL1        0.0897
     20 N         143.2000  127.6921  159.0687 N.3     1  UNL1       -0.2691
     21 C         142.6459  127.5255  157.6848 C.3     1  UNL1        0.0897
     22 C         143.1031  128.4312  156.5799 C.3     1  UNL1        0.0899
     23 N         144.1143  129.5034  156.8589 N.3     1  UNL1       -0.2665
     24 C         144.6684  129.6699  158.2429 C.3     1  UNL1        0.0899
     25 C         144.2112  128.7642  159.3478 C.3     1  UNL1        0.0897
     26 C         143.3099  140.7257  160.4496 C.1     1  UNL1       -0.0543
     27 C         144.2224  141.4614  161.3858 C.1     1  UNL1       -0.0388
     28 C         145.1348  142.1970  162.3219 C.3     1  UNL1        0.2814
     29 O         145.5085  141.5857  163.6398 O.3     1  UNL1       -0.4612
     30 C         144.4394  141.2137  164.6241 C.ar    1  UNL1        0.1400
     31 C         143.7932  142.2739  165.4658 C.ar    1  UNL1        0.0367
     32 C         142.7242  141.9020  166.4500 C.ar    1  UNL1        0.0002
     33 C         142.3014  140.4700  166.5926 C.ar    1  UNL1       -0.0059
     34 C         142.9476  139.4098  165.7510 C.ar    1  UNL1        0.0002
     35 C         144.0166  139.7817  164.7667 C.ar    1  UNL1        0.0367
     36 C         141.2323  140.0980  167.5770 C.3     1  UNL1        0.0993
     37 N         141.1797  140.7704  168.9168 N.3     1  UNL1       -0.2646
     38 C         140.2085  141.8879  169.1575 C.3     1  UNL1        0.1049
     39 C         140.1559  142.5603  170.4974 C.3     1  UNL1        0.1595
     40 O         141.0745  142.1151  171.5965 O.3     1  UNL1       -0.3508
     41 C         142.0457  140.9976  171.3558 C.3     1  UNL1        0.1595
     42 C         142.0982  140.3252  170.0159 C.3     1  UNL1        0.1049
@<TRIPOS>BOND
     1    19    20    1
     2    20    21    1
     3    21    22    1
     4    22    23    1
     5    23    18    1
     6    18     6    1
     7     6     7   ar
     8     7     8   ar
     9     8     9   ar
    10     9    10   ar
    11    10    11   ar
    12    10    12    1
    13    12    13    1
    14    13    14    2
    15    14     1    1
    16     1     2   ar
    17     2     3   ar
    18     3     4   ar
    19     4    26    1
    20    26    27    3
    21    27    28    1
    22    28    29    1
    23    29    30    1
    24    30    31   ar
    25    31    32   ar
    26    32    33   ar
    27    33    36    1
    28    36    37    1
    29    37    38    1
    30    38    39    1
    31    39    40    1
    32    40    41    1
    33    41    42    1
    34    33    34   ar
    35    34    35   ar
    36     4     5   ar
    37    14    15    1
    38    15    16    2
    39    16    17    1
    40    23    24    1
    41    24    25    1
    42    25    20    1
    43    11     6   ar
    44    17    13    1
    45    17     9    1
    46     5     1   ar
    47    35    30   ar
    48    42    37    1
