@<TRIPOS>MOLECULE
*****
 44 47 0 0 0
SMALL
GASTEIGER

@<TRIPOS>ATOM
      1 C         141.2892  140.9270  162.5077 C.3     1  UNL1        0.0799
      2 C         141.3498  140.7258  163.9929 C.ar    1  UNL1        0.0374
      3 C         140.9593  141.8407  164.9173 C.ar    1  UNL1        0.0023
      4 C         141.0198  141.6395  166.4025 C.ar    1  UNL1        0.0183
      5 C         140.6294  142.7544  167.3269 C.ar    1  UNL1        0.0118
      6 C         140.6899  142.5532  168.8122 C.ar    1  UNL1        0.0685
      7 C         141.1408  141.2371  169.3729 C.ar    1  UNL1        0.0118
      8 C         141.5312  140.1222  168.4486 C.ar    1  UNL1        0.0199
      9 C         141.4707  140.3234  166.9634 C.ar    1  UNL1        0.0844
     10 N         141.8612  139.2084  166.0390 N.ar    1  UNL1       -0.2119
     11 C         141.8007  139.4097  164.5537 C.ar    1  UNL1        0.2211
     12 C         140.2995  143.6682  169.7365 C.1     1  UNL1        0.1004
     13 N         139.9090  144.7831  170.6609 N.1     1  UNL1       -0.1908
     14 O         142.1911  138.2947  163.6293 O.3     1  UNL1       -0.4563
     15 C         141.0751  137.2945  163.6935 C.3     1  UNL1        0.2542
     16 C         140.1097  140.4231  161.7300 C.ar    1  UNL1        0.0148
     17 C         138.7181  140.7700  162.1693 C.ar    1  UNL1       -0.0014
     18 C         137.5386  140.2662  161.3916 C.ar    1  UNL1        0.0029
     19 C         137.7507  139.4153  160.1746 C.ar    1  UNL1        0.0392
     20 C         139.1423  139.0684  159.7353 C.ar    1  UNL1        0.1657
     21 C         140.3219  139.5723  160.5130 C.ar    1  UNL1        0.1702
     22 F         141.7135  139.2254  160.0737 F       1  UNL1       -0.2013
     23 O         139.3544  138.2176  158.5183 O.3     1  UNL1       -0.4692
     24 C         139.8650  138.8359  157.2506 C.3     1  UNL1        0.2526
     25 C         142.4083  141.6321  161.8001 C.3     1  UNL1        0.1162
     26 O         143.3221  140.4803  162.0976 O.3     1  UNL1       -0.3820
     27 H         144.2013  140.6620  161.7304 H       1  UNL1        0.2107
     28 C         140.2816  144.3077  159.7832 C.ar    1  UNL1        0.2272
     29 C         141.1954  143.1560  160.0807 C.ar    1  UNL1        0.0559
     30 C         141.4945  142.7838  161.5027 C.ar    1  UNL1        0.0117
     31 C         140.8798  143.5634  162.6271 C.ar    1  UNL1        0.0560
     32 C         139.9661  144.7151  162.3296 C.ar    1  UNL1        0.2319
     33 N         139.6669  145.0873  160.9077 N.ar    1  UNL1       -0.1766
     34 C         140.6938  145.8361  157.7231 C.3     1  UNL1        0.2542
     35 O         139.9825  144.6799  158.3612 O.3     1  UNL1       -0.4561
     36 O         139.3514  145.4947  163.4542 O.3     1  UNL1       -0.4067
     37 C         138.6567  144.7763  164.5728 C.3     1  UNL1        0.5097
     38 F         138.5285  145.4283  165.9176 F       1  UNL1       -0.1549
     39 F         138.0901  143.4059  164.3466 F       1  UNL1       -0.1549
     40 C         143.5273  142.3372  161.0926 C.3     1  UNL1        0.0491
     41 C         144.5108  143.1566  161.8747 C.3     1  UNL1        0.0750
     42 N         144.8225  142.7977  163.2973 N.3     1  UNL1       -0.2702
     43 C         144.1621  143.5409  164.4204 C.3     1  UNL1        0.0897
     44 C         145.7948  141.6953  163.5969 C.3     1  UNL1        0.0897
@<TRIPOS>BOND
     1    34    35    1
     2    35    28    1
     3    28    29   ar
     4    29    30   ar
     5    30    25    1
     6    25    26    1
     7    25    40    1
     8    40    41    1
     9    41    42    1
    10    42    43    1
    11    42    44    1
    12    25     1    1
    13     1     2    1
    14     2     3   ar
    15     3     4   ar
    16     4     5   ar
    17     5     6   ar
    18     6    12    1
    19    12    13    3
    20     6     7   ar
    21     7     8   ar
    22     8     9   ar
    23     9    10   ar
    24    10    11   ar
    25    11    14    1
    26    14    15    1
    27     1    16    1
    28    16    17   ar
    29    17    18   ar
    30    18    19   ar
    31    19    20   ar
    32    20    23    1
    33    23    24    1
    34    20    21   ar
    35    21    22    1
    36    30    31   ar
    37    31    32   ar
    38    32    36    1
    39    36    37    1
    40    37    38    1
    41    37    39    1
    42    32    33   ar
    43    33    28   ar
    44    11     2   ar
    45    21    16   ar
    46     9     4   ar
    47    26    27    1
@<TRIPOS>MOLECULE
*****
 44 47 0 0 0
SMALL
GASTEIGER

@<TRIPOS>ATOM
      1 C         141.4114  142.4453  162.4560 C.3     1  UNL1        0.0799
      2 C         141.8928  142.3834  163.8753 C.ar    1  UNL1        0.0374
      3 C         141.0425  141.7361  164.9280 C.ar    1  UNL1        0.0023
      4 C         141.5238  141.6741  166.3473 C.ar    1  UNL1        0.0183
      5 C         140.6736  141.0269  167.4000 C.ar    1  UNL1        0.0118
      6 C         141.1549  140.9649  168.8194 C.ar    1  UNL1        0.0685
      7 C         142.4864  141.5502  169.1860 C.ar    1  UNL1        0.0118
      8 C         143.3367  142.1974  168.1333 C.ar    1  UNL1        0.0199
      9 C         142.8554  142.2594  166.7140 C.ar    1  UNL1        0.0844
     10 N         143.7057  142.9066  165.6613 N.ar    1  UNL1       -0.2119
     11 C         143.2243  142.9686  164.2420 C.ar    1  UNL1        0.2211
     12 C         140.3046  140.3177  169.8721 C.1     1  UNL1        0.1004
     13 N         139.4544  139.6705  170.9248 N.1     1  UNL1       -0.1908
     14 O         144.0746  143.6159  163.1893 O.3     1  UNL1       -0.4563
     15 C         143.8588  145.0932  163.3343 C.3     1  UNL1        0.2542
     16 C         142.2693  141.9082  161.3490 C.ar    1  UNL1        0.0148
     17 C         142.6376  142.7880  160.1912 C.ar    1  UNL1       -0.0014
     18 C         143.4955  142.2509  159.0842 C.ar    1  UNL1        0.0029
     19 C         143.9851  140.8339  159.1349 C.ar    1  UNL1        0.0392
     20 C         143.6169  139.9542  160.2927 C.ar    1  UNL1        0.1657
     21 C         142.7590  140.4913  161.3997 C.ar    1  UNL1        0.1702
     22 F         142.3907  139.6116  162.5575 F       1  UNL1       -0.2013
     23 O         144.1065  138.5373  160.3434 O.3     1  UNL1       -0.4692
     24 C         143.1274  137.4027  160.2801 C.3     1  UNL1        0.2526
     25 C         140.0722  143.0444  162.1437 C.3     1  UNL1        0.1162
     26 O         140.5839  144.3967  162.5432 O.3     1  UNL1       -0.3820
     27 H         139.8777  145.0534  162.4390 H       1  UNL1        0.2107
     28 C         138.7778  140.0372  159.9007 C.ar    1  UNL1        0.2272
     29 C         139.2895  141.3894  160.3003 C.ar    1  UNL1        0.0559
     30 C         139.5605  141.6922  161.7442 C.ar    1  UNL1        0.0117
     31 C         139.3197  140.6428  162.7885 C.ar    1  UNL1        0.0560
     32 C         138.8080  139.2906  162.3889 C.ar    1  UNL1        0.2319
     33 N         138.5370  138.9878  160.9451 N.ar    1  UNL1       -0.1766
     34 C         137.9151  140.7879  157.5678 C.3     1  UNL1        0.2542
     35 O         138.5068  139.7345  158.4567 O.3     1  UNL1       -0.4561
     36 O         138.5672  138.2411  163.4334 O.3     1  UNL1       -0.4067
     37 C         138.9142  138.5159  164.8666 C.3     1  UNL1        0.5097
     38 F         137.8910  139.1169  165.7841 F       1  UNL1       -0.1549
     39 F         140.2845  138.1896  165.3823 F       1  UNL1       -0.1549
     40 C         138.7330  143.6435  161.8314 C.3     1  UNL1        0.0491
     41 C         138.0062  144.4403  162.8741 C.3     1  UNL1        0.0750
     42 N         138.0396  144.0047  164.3091 N.3     1  UNL1       -0.2702
     43 C         137.4989  142.6607  164.6977 C.3     1  UNL1        0.0897
     44 C         138.6137  144.9133  165.3555 C.3     1  UNL1        0.0897
@<TRIPOS>BOND
     1    34    35    1
     2    35    28    1
     3    28    29   ar
     4    29    30   ar
     5    30    25    1
     6    25    26    1
     7    25    40    1
     8    40    41    1
     9    41    42    1
    10    42    43    1
    11    42    44    1
    12    25     1    1
    13     1     2    1
    14     2     3   ar
    15     3     4   ar
    16     4     5   ar
    17     5     6   ar
    18     6    12    1
    19    12    13    3
    20     6     7   ar
    21     7     8   ar
    22     8     9   ar
    23     9    10   ar
    24    10    11   ar
    25    11    14    1
    26    14    15    1
    27     1    16    1
    28    16    17   ar
    29    17    18   ar
    30    18    19   ar
    31    19    20   ar
    32    20    23    1
    33    23    24    1
    34    20    21   ar
    35    21    22    1
    36    30    31   ar
    37    31    32   ar
    38    32    36    1
    39    36    37    1
    40    37    38    1
    41    37    39    1
    42    32    33   ar
    43    33    28   ar
    44    11     2   ar
    45    21    16   ar
    46     9     4   ar
    47    26    27    1
@<TRIPOS>MOLECULE
*****
 44 47 0 0 0
SMALL
GASTEIGER

@<TRIPOS>ATOM
      1 C         142.2440  141.1801  162.9514 C.3     1  UNL1        0.0799
      2 C         142.4571  141.4660  164.4085 C.ar    1  UNL1        0.0374
      3 C         141.5972  140.7948  165.4380 C.ar    1  UNL1        0.0023
      4 C         141.8103  141.0807  166.8950 C.ar    1  UNL1        0.0183
      5 C         140.9504  140.4094  167.9246 C.ar    1  UNL1        0.0118
      6 C         141.1635  140.6953  169.3817 C.ar    1  UNL1        0.0685
      7 C         142.2364  141.6525  169.8090 C.ar    1  UNL1        0.0118
      8 C         143.0963  142.3237  168.7795 C.ar    1  UNL1        0.0199
      9 C         142.8832  142.0379  167.3225 C.ar    1  UNL1        0.0844
     10 N         143.7431  142.7091  166.2929 N.ar    1  UNL1       -0.2119
     11 C         143.5300  142.4232  164.8358 C.ar    1  UNL1        0.2211
     12 C         140.3036  140.0241  170.4112 C.1     1  UNL1        0.1004
     13 N         139.4438  139.3528  171.4408 N.1     1  UNL1       -0.1908
     14 O         144.3898  143.0945  163.8063 O.3     1  UNL1       -0.4563
     15 C         143.9255  144.5195  163.7453 C.3     1  UNL1        0.2542
     16 C         141.5561  142.1902  162.0816 C.ar    1  UNL1        0.0148
     17 C         142.2890  142.8108  160.9293 C.ar    1  UNL1       -0.0014
     18 C         141.6011  143.8209  160.0596 C.ar    1  UNL1        0.0029
     19 C         140.1803  144.2104  160.3421 C.ar    1  UNL1        0.0392
     20 C         139.4475  143.5898  161.4944 C.ar    1  UNL1        0.1657
     21 C         140.1354  142.5797  162.3642 C.ar    1  UNL1        0.1702
     22 F         139.4026  141.9591  163.5165 F       1  UNL1       -0.2013
     23 O         138.0268  143.9793  161.7770 O.3     1  UNL1       -0.4692
     24 C         137.6405  144.4685  163.1413 C.3     1  UNL1        0.2526
     25 C         142.7188  139.8841  162.3642 C.3     1  UNL1        0.1162
     26 O         144.1369  140.3658  162.4476 O.3     1  UNL1       -0.3820
     27 H         144.7321  139.6794  162.1076 H       1  UNL1        0.2107
     28 C         139.1382  139.0020  160.8977 C.ar    1  UNL1        0.2272
     29 C         140.5562  139.4837  160.9811 C.ar    1  UNL1        0.0559
     30 C         141.3007  139.4023  162.2808 C.ar    1  UNL1        0.0117
     31 C         140.6271  138.8392  163.4970 C.ar    1  UNL1        0.0560
     32 C         139.2091  138.3575  163.4135 C.ar    1  UNL1        0.2319
     33 N         138.4646  138.4389  162.1139 N.ar    1  UNL1       -0.1766
     34 C         137.9703  140.4174  159.0585 C.3     1  UNL1        0.2542
     35 O         138.3936  139.0833  159.5980 O.3     1  UNL1       -0.4561
     36 O         138.5355  137.7944  164.6298 O.3     1  UNL1       -0.4067
     37 C         138.2272  138.6854  165.7965 C.3     1  UNL1        0.5097
     38 F         138.2440  140.1756  165.6272 F       1  UNL1       -0.1549
     39 F         137.9019  138.0859  167.1326 F       1  UNL1       -0.1549
     40 C         143.1936  138.5880  161.7770 C.3     1  UNL1        0.0491
     41 C         144.1057  138.5937  160.5861 C.3     1  UNL1        0.0750
     42 N         143.5609  138.9138  159.2257 N.3     1  UNL1       -0.2702
     43 C         142.7623  137.8881  158.4772 C.3     1  UNL1        0.0897
     44 C         143.8147  140.2596  158.6137 C.3     1  UNL1        0.0897
@<TRIPOS>BOND
     1    34    35    1
     2    35    28    1
     3    28    29   ar
     4    29    30   ar
     5    30    25    1
     6    25    26    1
     7    25    40    1
     8    40    41    1
     9    41    42    1
    10    42    43    1
    11    42    44    1
    12    25     1    1
    13     1     2    1
    14     2     3   ar
    15     3     4   ar
    16     4     5   ar
    17     5     6   ar
    18     6    12    1
    19    12    13    3
    20     6     7   ar
    21     7     8   ar
    22     8     9   ar
    23     9    10   ar
    24    10    11   ar
    25    11    14    1
    26    14    15    1
    27     1    16    1
    28    16    17   ar
    29    17    18   ar
    30    18    19   ar
    31    19    20   ar
    32    20    23    1
    33    23    24    1
    34    20    21   ar
    35    21    22    1
    36    30    31   ar
    37    31    32   ar
    38    32    36    1
    39    36    37    1
    40    37    38    1
    41    37    39    1
    42    32    33   ar
    43    33    28   ar
    44    11     2   ar
    45    21    16   ar
    46     9     4   ar
    47    26    27    1
@<TRIPOS>MOLECULE
*****
 44 47 0 0 0
SMALL
GASTEIGER

@<TRIPOS>ATOM
      1 C         140.7653  140.7610  162.5784 C.3     1  UNL1        0.0799
      2 C         140.2154  140.4669  163.9427 C.ar    1  UNL1        0.0374
      3 C         140.8768  141.0450  165.1585 C.ar    1  UNL1        0.0023
      4 C         140.3270  140.7509  166.5227 C.ar    1  UNL1        0.0183
      5 C         140.9885  141.3290  167.7386 C.ar    1  UNL1        0.0118
      6 C         140.4386  141.0349  169.1028 C.ar    1  UNL1        0.0685
      7 C         139.2273  140.1628  169.2512 C.ar    1  UNL1        0.0118
      8 C         138.5658  139.5847  168.0354 C.ar    1  UNL1        0.0199
      9 C         139.1157  139.8787  166.6712 C.ar    1  UNL1        0.0844
     10 N         138.4542  139.3006  165.4553 N.ar    1  UNL1       -0.2119
     11 C         139.0041  139.5947  164.0910 C.ar    1  UNL1        0.2211
     12 C         141.1000  141.6130  170.3187 C.1     1  UNL1        0.1004
     13 N         141.7615  142.1911  171.5345 N.1     1  UNL1       -0.1908
     14 O         138.3426  139.0166  162.8752 O.3     1  UNL1       -0.4563
     15 C         138.7294  137.5677  162.8437 C.3     1  UNL1        0.2542
     16 C         141.5330  139.7077  161.8361 C.ar    1  UNL1        0.0148
     17 C         142.7173  139.0494  162.4796 C.ar    1  UNL1       -0.0014
     18 C         143.4850  137.9960  161.7373 C.ar    1  UNL1        0.0029
     19 C         143.0685  137.6009  160.3515 C.ar    1  UNL1        0.0392
     20 C         141.8842  138.2592  159.7080 C.ar    1  UNL1        0.1657
     21 C         141.1165  139.3126  160.4503 C.ar    1  UNL1        0.1702
     22 F         139.9322  139.9709  159.8068 F       1  UNL1       -0.2013
     23 O         141.4677  137.8642  158.3222 O.3     1  UNL1       -0.4692
     24 C         141.8445  138.7238  157.1522 C.3     1  UNL1        0.2526
     25 C         140.5474  142.1085  161.9564 C.3     1  UNL1        0.1162
     26 O         139.0633  141.9106  162.0477 O.3     1  UNL1       -0.3820
     27 H         138.6106  142.6895  161.6881 H       1  UNL1        0.2107
     28 C         144.1878  142.5294  160.4333 C.ar    1  UNL1        0.2272
     29 C         142.7038  142.3315  160.5246 C.ar    1  UNL1        0.0559
     30 C         142.0315  142.3064  161.8652 C.ar    1  UNL1        0.0117
     31 C         142.8433  142.4791  163.1146 C.ar    1  UNL1        0.0560
     32 C         144.3274  142.6769  163.0234 C.ar    1  UNL1        0.2319
     33 N         144.9997  142.7021  161.6827 N.ar    1  UNL1       -0.1766
     34 C         144.0544  142.8145  157.8544 C.3     1  UNL1        0.2542
     35 O         144.8601  142.5545  159.0926 O.3     1  UNL1       -0.4561
     36 O         145.1392  142.8497  164.2729 O.3     1  UNL1       -0.4067
     37 C         144.5505  143.5557  165.4582 C.3     1  UNL1        0.5097
     38 F         143.6124  142.8279  166.3748 F       1  UNL1       -0.1549
     39 F         144.8998  144.9895  165.7268 F       1  UNL1       -0.1549
     40 C         140.3295  143.4560  161.3345 C.3     1  UNL1        0.0491
     41 C         140.0748  144.6512  162.2044 C.3     1  UNL1        0.0750
     42 N         139.1728  144.5323  163.3969 N.3     1  UNL1       -0.2702
     43 C         139.7591  144.4330  164.7739 C.3     1  UNL1        0.0897
     44 C         137.6842  144.5127  163.2123 C.3     1  UNL1        0.0897
@<TRIPOS>BOND
     1    34    35    1
     2    35    28    1
     3    28    29   ar
     4    29    30   ar
     5    30    25    1
     6    25    26    1
     7    25    40    1
     8    40    41    1
     9    41    42    1
    10    42    43    1
    11    42    44    1
    12    25     1    1
    13     1     2    1
    14     2     3   ar
    15     3     4   ar
    16     4     5   ar
    17     5     6   ar
    18     6    12    1
    19    12    13    3
    20     6     7   ar
    21     7     8   ar
    22     8     9   ar
    23     9    10   ar
    24    10    11   ar
    25    11    14    1
    26    14    15    1
    27     1    16    1
    28    16    17   ar
    29    17    18   ar
    30    18    19   ar
    31    19    20   ar
    32    20    23    1
    33    23    24    1
    34    20    21   ar
    35    21    22    1
    36    30    31   ar
    37    31    32   ar
    38    32    36    1
    39    36    37    1
    40    37    38    1
    41    37    39    1
    42    32    33   ar
    43    33    28   ar
    44    11     2   ar
    45    21    16   ar
    46     9     4   ar
    47    26    27    1
@<TRIPOS>MOLECULE
*****
 44 47 0 0 0
SMALL
GASTEIGER

@<TRIPOS>ATOM
      1 C         140.3883  141.2655  162.4776 C.3     1  UNL1        0.0799
      2 C         140.3923  141.7255  163.9053 C.ar    1  UNL1        0.0374
      3 C         141.1806  140.9707  164.9343 C.ar    1  UNL1        0.0023
      4 C         141.1847  141.4307  166.3620 C.ar    1  UNL1        0.0183
      5 C         141.9730  140.6758  167.3909 C.ar    1  UNL1        0.0118
      6 C         141.9771  141.1359  168.8187 C.ar    1  UNL1        0.0685
      7 C         141.1928  142.3507  169.2174 C.ar    1  UNL1        0.0118
      8 C         140.4044  143.1055  168.1885 C.ar    1  UNL1        0.0199
      9 C         140.4004  142.6456  166.7608 C.ar    1  UNL1        0.0844
     10 N         139.6120  143.4004  165.7318 N.ar    1  UNL1       -0.2119
     11 C         139.6080  142.9404  164.3041 C.ar    1  UNL1        0.2211
     12 C         142.7654  140.3810  169.8476 C.1     1  UNL1        0.1004
     13 N         143.5537  139.6262  170.8766 N.1     1  UNL1       -0.1908
     14 O         138.8197  143.6952  163.2751 O.3     1  UNL1       -0.4563
     15 C         139.4433  145.0570  163.1937 C.3     1  UNL1        0.2542
     16 C         140.8628  142.1853  161.3919 C.ar    1  UNL1        0.0148
     17 C         142.2504  142.7528  161.4429 C.ar    1  UNL1       -0.0014
     18 C         142.7249  143.6726  160.3572 C.ar    1  UNL1        0.0029
     19 C         141.8118  144.0250  159.2205 C.ar    1  UNL1        0.0392
     20 C         140.4242  143.4575  159.1695 C.ar    1  UNL1        0.1657
     21 C         139.9497  142.5377  160.2552 C.ar    1  UNL1        0.1702
     22 F         138.5621  141.9702  160.2042 F       1  UNL1       -0.2013
     23 O         139.5111  143.8099  158.0328 O.3     1  UNL1       -0.4692
     24 C         139.8599  144.9434  157.1144 C.3     1  UNL1        0.2526
     25 C         139.9097  139.8856  162.1356 C.3     1  UNL1        0.1162
     26 O         138.5267  140.2540  162.5846 O.3     1  UNL1       -0.3820
     27 H         137.9369  139.4921  162.4729 H       1  UNL1        0.2107
     28 C         142.9410  138.8546  159.7908 C.ar    1  UNL1        0.2272
     29 C         141.5581  139.2230  160.2399 C.ar    1  UNL1        0.0559
     30 C         141.2927  139.5173  161.6865 C.ar    1  UNL1        0.0117
     31 C         142.4104  139.4433  162.6842 C.ar    1  UNL1        0.0560
     32 C         143.7934  139.0750  162.2351 C.ar    1  UNL1        0.2319
     33 N         144.0587  138.7806  160.7884 N.ar    1  UNL1       -0.1766
     34 C         142.6937  137.2910  157.7307 C.3     1  UNL1        0.2542
     35 O         143.2063  138.5603  158.3440 O.3     1  UNL1       -0.4561
     36 O         144.9111  139.0010  163.2328 O.3     1  UNL1       -0.4067
     37 C         144.6968  139.4850  164.6363 C.3     1  UNL1        0.5097
     38 F         144.6833  140.9561  164.9285 F       1  UNL1       -0.1549
     39 F         144.4960  138.4977  165.7477 F       1  UNL1       -0.1549
     40 C         139.4312  138.5058  161.7936 C.3     1  UNL1        0.0491
     41 C         138.8561  137.6249  162.8629 C.3     1  UNL1        0.0750
     42 N         139.4028  137.6850  164.2585 N.3     1  UNL1       -0.2702
     43 C         138.6011  138.3283  165.3509 C.3     1  UNL1        0.0897
     44 C         140.7512  137.1018  164.5616 C.3     1  UNL1        0.0897
@<TRIPOS>BOND
     1    34    35    1
     2    35    28    1
     3    28    29   ar
     4    29    30   ar
     5    30    25    1
     6    25    26    1
     7    25    40    1
     8    40    41    1
     9    41    42    1
    10    42    43    1
    11    42    44    1
    12    25     1    1
    13     1     2    1
    14     2     3   ar
    15     3     4   ar
    16     4     5   ar
    17     5     6   ar
    18     6    12    1
    19    12    13    3
    20     6     7   ar
    21     7     8   ar
    22     8     9   ar
    23     9    10   ar
    24    10    11   ar
    25    11    14    1
    26    14    15    1
    27     1    16    1
    28    16    17   ar
    29    17    18   ar
    30    18    19   ar
    31    19    20   ar
    32    20    23    1
    33    23    24    1
    34    20    21   ar
    35    21    22    1
    36    30    31   ar
    37    31    32   ar
    38    32    36    1
    39    36    37    1
    40    37    38    1
    41    37    39    1
    42    32    33   ar
    43    33    28   ar
    44    11     2   ar
    45    21    16   ar
    46     9     4   ar
    47    26    27    1
@<TRIPOS>MOLECULE
*****
 44 47 0 0 0
SMALL
GASTEIGER

@<TRIPOS>ATOM
      1 C         140.7740  140.7807  162.6738 C.3     1  UNL1        0.0799
      2 C         140.2041  140.4826  164.0290 C.ar    1  UNL1        0.0374
      3 C         140.8461  141.0594  165.2559 C.ar    1  UNL1        0.0023
      4 C         140.2763  140.7614  166.6110 C.ar    1  UNL1        0.0183
      5 C         140.9182  141.3382  167.8379 C.ar    1  UNL1        0.0118
      6 C         140.3484  141.0401  169.1932 C.ar    1  UNL1        0.0685
      7 C         139.1366  140.1654  169.3214 C.ar    1  UNL1        0.0118
      8 C         138.4947  139.5886  168.0945 C.ar    1  UNL1        0.0199
      9 C         139.0645  139.8866  166.7394 C.ar    1  UNL1        0.0844
     10 N         138.4226  139.3098  165.5125 N.ar    1  UNL1       -0.2119
     11 C         138.9924  139.6079  164.1573 C.ar    1  UNL1        0.2211
     12 C         140.9903  141.6169  170.4200 C.1     1  UNL1        0.1004
     13 N         141.6322  142.1937  171.6469 N.1     1  UNL1       -0.1908
     14 O         138.3505  139.0311  162.9304 O.3     1  UNL1       -0.4563
     15 C         138.7877  137.5975  162.8701 C.3     1  UNL1        0.2542
     16 C         141.6151  139.7561  161.9720 C.ar    1  UNL1        0.0148
     17 C         142.8060  139.1618  162.6639 C.ar    1  UNL1       -0.0014
     18 C         143.6471  138.1371  161.9621 C.ar    1  UNL1        0.0029
     19 C         143.2975  137.7068  160.5683 C.ar    1  UNL1        0.0392
     20 C         142.1066  138.3010  159.8764 C.ar    1  UNL1        0.1657
     21 C         141.2655  139.3257  160.5783 C.ar    1  UNL1        0.1702
     22 F         140.0746  139.9200  159.8863 F       1  UNL1       -0.2013
     23 O         141.7570  137.8707  158.4827 O.3     1  UNL1       -0.4692
     24 C         142.0444  138.7780  157.3233 C.3     1  UNL1        0.2526
     25 C         140.5026  142.1034  162.0204 C.3     1  UNL1        0.1162
     26 O         139.0406  141.7736  161.9600 O.3     1  UNL1       -0.3820
     27 H         138.5600  142.5089  161.5486 H       1  UNL1        0.2107
     28 C         144.0639  143.1089  163.4545 C.ar    1  UNL1        0.2272
     29 C         142.6018  142.7791  163.3940 C.ar    1  UNL1        0.0559
     30 C         141.9647  142.4332  162.0809 C.ar    1  UNL1        0.0117
     31 C         142.7896  142.4171  160.8282 C.ar    1  UNL1        0.0560
     32 C         144.2516  142.7469  160.8887 C.ar    1  UNL1        0.2319
     33 N         144.8888  143.0928  162.2018 N.ar    1  UNL1       -0.1766
     34 C         144.0471  143.0375  166.0515 C.3     1  UNL1        0.2542
     35 O         144.7010  143.4548  164.7677 O.3     1  UNL1       -0.4561
     36 O         145.0765  142.7308  159.6359 O.3     1  UNL1       -0.4067
     37 C         144.5069  142.1621  158.3702 C.3     1  UNL1        0.5097
     38 F         143.7224  143.0393  157.4402 F       1  UNL1       -0.1549
     39 F         144.7220  140.7160  158.0344 F       1  UNL1       -0.1549
     40 C         140.2313  143.4261  161.3671 C.3     1  UNL1        0.0491
     41 C         139.9305  144.6307  162.2089 C.3     1  UNL1        0.0750
     42 N         139.0428  144.5027  163.4112 N.3     1  UNL1       -0.2702
     43 C         139.6384  144.5135  164.7878 C.3     1  UNL1        0.0897
     44 C         137.5593  144.3640  163.2369 C.3     1  UNL1        0.0897
@<TRIPOS>BOND
     1    34    35    1
     2    35    28    1
     3    28    29   ar
     4    29    30   ar
     5    30    25    1
     6    25    26    1
     7    25    40    1
     8    40    41    1
     9    41    42    1
    10    42    43    1
    11    42    44    1
    12    25     1    1
    13     1     2    1
    14     2     3   ar
    15     3     4   ar
    16     4     5   ar
    17     5     6   ar
    18     6    12    1
    19    12    13    3
    20     6     7   ar
    21     7     8   ar
    22     8     9   ar
    23     9    10   ar
    24    10    11   ar
    25    11    14    1
    26    14    15    1
    27     1    16    1
    28    16    17   ar
    29    17    18   ar
    30    18    19   ar
    31    19    20   ar
    32    20    23    1
    33    23    24    1
    34    20    21   ar
    35    21    22    1
    36    30    31   ar
    37    31    32   ar
    38    32    36    1
    39    36    37    1
    40    37    38    1
    41    37    39    1
    42    32    33   ar
    43    33    28   ar
    44    11     2   ar
    45    21    16   ar
    46     9     4   ar
    47    26    27    1
@<TRIPOS>MOLECULE
*****
 44 47 0 0 0
SMALL
GASTEIGER

@<TRIPOS>ATOM
      1 C         139.1792  141.1061  164.2295 C.3     1  UNL1        0.0799
      2 C         139.6653  140.8815  165.6307 C.ar    1  UNL1        0.0374
      3 C         140.8709  141.6187  166.1335 C.ar    1  UNL1        0.0023
      4 C         141.3571  141.3941  167.5346 C.ar    1  UNL1        0.0183
      5 C         142.5627  142.1314  168.0374 C.ar    1  UNL1        0.0118
      6 C         143.0489  141.9067  169.4386 C.ar    1  UNL1        0.0685
      7 C         142.3293  140.9448  170.3369 C.ar    1  UNL1        0.0118
      8 C         141.1237  140.2075  169.8341 C.ar    1  UNL1        0.0199
      9 C         140.6375  140.4322  168.4330 C.ar    1  UNL1        0.0844
     10 N         139.4319  139.6949  167.9302 N.ar    1  UNL1       -0.2119
     11 C         138.9458  139.9196  166.5290 C.ar    1  UNL1        0.2211
     12 C         144.2545  142.6440  169.9414 C.1     1  UNL1        0.1004
     13 N         145.4602  143.3812  170.4443 N.1     1  UNL1       -0.1908
     14 O         137.7401  139.1823  166.0261 O.3     1  UNL1       -0.4563
     15 C         137.4815  138.0875  167.0183 C.3     1  UNL1        0.2542
     16 C         139.1073  139.9576  163.2673 C.ar    1  UNL1        0.0148
     17 C         137.8137  139.6350  162.5799 C.ar    1  UNL1       -0.0014
     18 C         137.7418  138.4865  161.6177 C.ar    1  UNL1        0.0029
     19 C         138.9635  137.6606  161.3430 C.ar    1  UNL1        0.0392
     20 C         140.2571  137.9832  162.0305 C.ar    1  UNL1        0.1657
     21 C         140.3289  139.1318  162.9927 C.ar    1  UNL1        0.1702
     22 F         141.6225  139.4545  163.6802 F       1  UNL1       -0.2013
     23 O         141.4788  137.1574  161.7559 O.3     1  UNL1       -0.4692
     24 C         142.5922  137.7194  160.9227 C.3     1  UNL1        0.2526
     25 C         138.7649  142.4794  163.7905 C.3     1  UNL1        0.1162
     26 O         137.6574  142.4687  164.8020 O.3     1  UNL1       -0.3820
     27 H         137.1661  143.3036  164.7524 H       1  UNL1        0.2107
     28 C         140.6578  142.5277  160.3027 C.ar    1  UNL1        0.2272
     29 C         139.5502  142.5170  161.3142 C.ar    1  UNL1        0.0559
     30 C         139.8725  142.4901  162.7789 C.ar    1  UNL1        0.0117
     31 C         141.3023  142.4738  163.2321 C.ar    1  UNL1        0.0560
     32 C         142.4098  142.4846  162.2205 C.ar    1  UNL1        0.2319
     33 N         142.0876  142.5115  160.7558 N.ar    1  UNL1       -0.1766
     34 C         141.1398  143.4147  157.9087 C.3     1  UNL1        0.2542
     35 O         140.3355  142.5546  158.8379 O.3     1  UNL1       -0.4561
     36 O         143.8397  142.4683  162.6737 O.3     1  UNL1       -0.4067
     37 C         144.6592  141.2208  162.5257 C.3     1  UNL1        0.5097
     38 F         144.4853  140.3480  161.3183 F       1  UNL1       -0.1549
     39 F         145.6528  140.8460  163.5852 F       1  UNL1       -0.1549
     40 C         138.3507  143.8526  163.3515 C.3     1  UNL1        0.0491
     41 C         139.0833  145.0568  163.8646 C.3     1  UNL1        0.0750
     42 N         140.1395  145.7077  163.0214 N.3     1  UNL1       -0.2702
     43 C         141.5546  145.7776  163.5138 C.3     1  UNL1        0.0897
     44 C         139.7805  146.2886  161.6858 C.3     1  UNL1        0.0897
@<TRIPOS>BOND
     1    34    35    1
     2    35    28    1
     3    28    29   ar
     4    29    30   ar
     5    30    25    1
     6    25    26    1
     7    25    40    1
     8    40    41    1
     9    41    42    1
    10    42    43    1
    11    42    44    1
    12    25     1    1
    13     1     2    1
    14     2     3   ar
    15     3     4   ar
    16     4     5   ar
    17     5     6   ar
    18     6    12    1
    19    12    13    3
    20     6     7   ar
    21     7     8   ar
    22     8     9   ar
    23     9    10   ar
    24    10    11   ar
    25    11    14    1
    26    14    15    1
    27     1    16    1
    28    16    17   ar
    29    17    18   ar
    30    18    19   ar
    31    19    20   ar
    32    20    23    1
    33    23    24    1
    34    20    21   ar
    35    21    22    1
    36    30    31   ar
    37    31    32   ar
    38    32    36    1
    39    36    37    1
    40    37    38    1
    41    37    39    1
    42    32    33   ar
    43    33    28   ar
    44    11     2   ar
    45    21    16   ar
    46     9     4   ar
    47    26    27    1
@<TRIPOS>MOLECULE
*****
 44 47 0 0 0
SMALL
GASTEIGER

@<TRIPOS>ATOM
      1 C         142.0598  142.1028  162.6746 C.3     1  UNL1        0.0799
      2 C         142.3829  142.1664  164.1381 C.ar    1  UNL1        0.0374
      3 C         141.5072  141.4612  165.1308 C.ar    1  UNL1        0.0023
      4 C         141.8302  141.5248  166.5942 C.ar    1  UNL1        0.0183
      5 C         140.9544  140.8195  167.5870 C.ar    1  UNL1        0.0118
      6 C         141.2775  140.8832  169.0505 C.ar    1  UNL1        0.0685
      7 C         142.4763  141.6521  169.5211 C.ar    1  UNL1        0.0118
      8 C         143.3521  142.3574  168.5283 C.ar    1  UNL1        0.0199
      9 C         143.0291  142.2938  167.0649 C.ar    1  UNL1        0.0844
     10 N         143.9048  142.9991  166.0722 N.ar    1  UNL1       -0.2119
     11 C         143.5818  142.9354  164.6087 C.ar    1  UNL1        0.2211
     12 C         140.4017  140.1779  170.0432 C.1     1  UNL1        0.1004
     13 N         139.5259  139.4726  171.0360 N.1     1  UNL1       -0.1908
     14 O         144.4575  143.6407  163.6159 O.3     1  UNL1       -0.4563
     15 C         144.0022  145.0698  163.6049 C.3     1  UNL1        0.2542
     16 C         141.4187  143.2770  161.9963 C.ar    1  UNL1        0.0148
     17 C         140.1456  143.8542  162.5403 C.ar    1  UNL1       -0.0014
     18 C         139.5045  145.0284  161.8620 C.ar    1  UNL1        0.0029
     19 C         140.1365  145.6255  160.6396 C.ar    1  UNL1        0.0392
     20 C         141.4097  145.0483  160.0956 C.ar    1  UNL1        0.1657
     21 C         142.0508  143.8740  160.7740 C.ar    1  UNL1        0.1702
     22 F         143.3239  143.2968  160.2300 F       1  UNL1       -0.2013
     23 O         142.0417  145.6453  158.8734 O.3     1  UNL1       -0.4692
     24 C         141.8302  145.0077  157.5322 C.3     1  UNL1        0.2526
     25 C         142.3779  140.8648  161.8895 C.3     1  UNL1        0.1162
     26 O         143.8433  141.1120  162.0934 O.3     1  UNL1       -0.3820
     27 H         144.3530  140.4105  161.6587 H       1  UNL1        0.2107
     28 C         138.8320  140.5811  160.1301 C.ar    1  UNL1        0.2272
     29 C         140.2973  140.8283  160.3339 C.ar    1  UNL1        0.0559
     30 C         140.9125  140.6176  161.6857 C.ar    1  UNL1        0.0117
     31 C         140.0623  140.1598  162.8335 C.ar    1  UNL1        0.0560
     32 C         138.5969  139.9127  162.6296 C.ar    1  UNL1        0.2319
     33 N         137.9818  140.1233  161.2779 N.ar    1  UNL1       -0.1766
     34 C         138.1869  142.1641  158.1735 C.3     1  UNL1        0.2542
     35 O         138.2168  140.7917  158.7783 O.3     1  UNL1       -0.4561
     36 O         137.7467  139.4548  163.7775 O.3     1  UNL1       -0.4067
     37 C         138.0784  139.8864  165.1753 C.3     1  UNL1        0.5097
     38 F         138.3642  141.3297  165.4667 F       1  UNL1       -0.1549
     39 F         138.1242  138.8744  166.2816 F       1  UNL1       -0.1549
     40 C         142.6959  139.6269  161.1045 C.3     1  UNL1        0.0491
     41 C         143.7228  139.6747  160.0120 C.3     1  UNL1        0.0750
     42 N         143.2893  139.7205  158.5767 N.3     1  UNL1       -0.2702
     43 C         143.3145  141.0192  157.8267 C.3     1  UNL1        0.0897
     44 C         142.8305  138.4674  157.8916 C.3     1  UNL1        0.0897
@<TRIPOS>BOND
     1    34    35    1
     2    35    28    1
     3    28    29   ar
     4    29    30   ar
     5    30    25    1
     6    25    26    1
     7    25    40    1
     8    40    41    1
     9    41    42    1
    10    42    43    1
    11    42    44    1
    12    25     1    1
    13     1     2    1
    14     2     3   ar
    15     3     4   ar
    16     4     5   ar
    17     5     6   ar
    18     6    12    1
    19    12    13    3
    20     6     7   ar
    21     7     8   ar
    22     8     9   ar
    23     9    10   ar
    24    10    11   ar
    25    11    14    1
    26    14    15    1
    27     1    16    1
    28    16    17   ar
    29    17    18   ar
    30    18    19   ar
    31    19    20   ar
    32    20    23    1
    33    23    24    1
    34    20    21   ar
    35    21    22    1
    36    30    31   ar
    37    31    32   ar
    38    32    36    1
    39    36    37    1
    40    37    38    1
    41    37    39    1
    42    32    33   ar
    43    33    28   ar
    44    11     2   ar
    45    21    16   ar
    46     9     4   ar
    47    26    27    1
@<TRIPOS>MOLECULE
*****
 44 47 0 0 0
SMALL
GASTEIGER

@<TRIPOS>ATOM
      1 C         142.0492  141.1793  163.0362 C.3     1  UNL1        0.0799
      2 C         141.9425  142.1967  161.9391 C.ar    1  UNL1        0.0374
      3 C         140.9047  142.0383  160.8677 C.ar    1  UNL1        0.0023
      4 C         140.7979  143.0556  159.7707 C.ar    1  UNL1        0.0183
      5 C         139.7601  142.8972  158.6993 C.ar    1  UNL1        0.0118
      6 C         139.6534  143.9146  157.6022 C.ar    1  UNL1        0.0685
      7 C         140.5845  145.0903  157.5765 C.ar    1  UNL1        0.0118
      8 C         141.6223  145.2487  158.6478 C.ar    1  UNL1        0.0199
      9 C         141.7291  144.2314  159.7449 C.ar    1  UNL1        0.0844
     10 N         142.7669  144.3898  160.8163 N.ar    1  UNL1       -0.2119
     11 C         142.8736  143.3724  161.9134 C.ar    1  UNL1        0.2211
     12 C         138.6156  143.7562  156.5308 C.1     1  UNL1        0.1004
     13 N         137.5778  143.5978  155.4594 N.1     1  UNL1       -0.1908
     14 O         143.9114  143.5308  162.9848 O.3     1  UNL1       -0.4563
     15 C         143.5438  144.7763  163.7355 C.3     1  UNL1        0.2542
     16 C         141.5721  141.5139  164.4184 C.ar    1  UNL1        0.0148
     17 C         140.1676  141.9956  164.6309 C.ar    1  UNL1       -0.0014
     18 C         139.6905  142.3302  166.0131 C.ar    1  UNL1        0.0029
     19 C         140.6180  142.1832  167.1828 C.ar    1  UNL1        0.0392
     20 C         142.0226  141.7015  166.9702 C.ar    1  UNL1        0.1657
     21 C         142.4996  141.3669  165.5880 C.ar    1  UNL1        0.1702
     22 F         143.9042  140.8852  165.3755 F       1  UNL1       -0.2013
     23 O         142.9501  141.5545  168.1399 O.3     1  UNL1       -0.4692
     24 C         142.8802  142.5274  169.2794 C.3     1  UNL1        0.2526
     25 C         142.6330  139.8273  162.7511 C.3     1  UNL1        0.1162
     26 O         144.0014  140.4359  162.6668 O.3     1  UNL1       -0.3820
     27 H         144.6522  139.7428  162.4748 H       1  UNL1        0.2107
     28 C         138.9818  138.6530  161.7315 C.ar    1  UNL1        0.2272
     29 C         140.3501  139.2617  161.6472 C.ar    1  UNL1        0.0559
     30 C         141.2646  139.2187  162.8354 C.ar    1  UNL1        0.0117
     31 C         140.8107  138.5670  164.1079 C.ar    1  UNL1        0.0560
     32 C         139.4423  137.9584  164.1922 C.ar    1  UNL1        0.2319
     33 N         138.5279  138.0014  163.0040 N.ar    1  UNL1       -0.1766
     34 C         137.7486  140.0078  159.8892 C.3     1  UNL1        0.2542
     35 O         138.0673  138.6960  160.5432 O.3     1  UNL1       -0.4561
     36 O         138.9884  137.3067  165.4648 O.3     1  UNL1       -0.4067
     37 C         138.0009  138.0034  166.3533 C.3     1  UNL1        0.5097
     38 F         137.1625  137.2090  167.3104 F       1  UNL1       -0.1549
     39 F         137.8517  139.4944  166.2847 F       1  UNL1       -0.1549
     40 C         143.2168  138.4753  162.4660 C.3     1  UNL1        0.0491
     41 C         144.0570  138.2643  161.2414 C.3     1  UNL1        0.0750
     42 N         143.5368  138.6736  159.8953 N.3     1  UNL1       -0.2702
     43 C         142.7005  137.7213  159.0931 C.3     1  UNL1        0.0897
     44 C         143.8531  140.0353  159.3514 C.3     1  UNL1        0.0897
@<TRIPOS>BOND
     1    34    35    1
     2    35    28    1
     3    28    29   ar
     4    29    30   ar
     5    30    25    1
     6    25    26    1
     7    25    40    1
     8    40    41    1
     9    41    42    1
    10    42    43    1
    11    42    44    1
    12    25     1    1
    13     1     2    1
    14     2     3   ar
    15     3     4   ar
    16     4     5   ar
    17     5     6   ar
    18     6    12    1
    19    12    13    3
    20     6     7   ar
    21     7     8   ar
    22     8     9   ar
    23     9    10   ar
    24    10    11   ar
    25    11    14    1
    26    14    15    1
    27     1    16    1
    28    16    17   ar
    29    17    18   ar
    30    18    19   ar
    31    19    20   ar
    32    20    23    1
    33    23    24    1
    34    20    21   ar
    35    21    22    1
    36    30    31   ar
    37    31    32   ar
    38    32    36    1
    39    36    37    1
    40    37    38    1
    41    37    39    1
    42    32    33   ar
    43    33    28   ar
    44    11     2   ar
    45    21    16   ar
    46     9     4   ar
    47    26    27    1
