@<TRIPOS>MOLECULE
*****
 35 40 0 0 0
SMALL
GASTEIGER

@<TRIPOS>ATOM
      1 N         141.4564  138.4413  158.9549 N.ar    1  UNL1       -0.2340
      2 N         141.5227  138.2268  160.4380 N.ar    1  UNL1       -0.1679
      3 C         140.2666  138.7800  161.0430 C.ar    1  UNL1        0.1065
      4 C         139.4239  139.3366  159.9338 C.ar    1  UNL1        0.0860
      5 C         138.0821  140.0069  159.9322 C.ar    1  UNL1        0.1316
      6 N         137.3467  140.2162  161.2227 N.pl3   1  UNL1       -0.3425
      7 N         137.4755  140.4679  158.6401 N.ar    1  UNL1       -0.2093
      8 C         138.2108  140.2586  157.3496 C.ar    1  UNL1        0.2014
      9 N         139.5528  139.5882  157.3512 N.ar    1  UNL1       -0.2050
     10 C         140.1593  139.1272  158.6433 C.ar    1  UNL1        0.1653
     11 H         137.7448  139.9136  162.0708 H       1  UNL1        0.1437
     12 H         136.4660  140.6562  161.2217 H       1  UNL1        0.1437
     13 C         139.9148  138.7773  162.5012 C.ar    1  UNL1        0.0195
     14 C         139.1802  137.6113  163.0933 C.ar    1  UNL1        0.0016
     15 C         138.8284  137.6086  164.5515 C.ar    1  UNL1        0.0001
     16 C         139.2113  138.7719  165.4175 C.ar    1  UNL1        0.0030
     17 C         138.8595  138.7692  166.8757 C.ar    1  UNL1        0.0369
     18 C         139.2424  139.9325  167.7417 C.ar    1  UNL1        0.1386
     19 C         139.9771  141.0986  167.1496 C.ar    1  UNL1        0.0369
     20 C         140.3288  141.1013  165.6914 C.ar    1  UNL1        0.0031
     21 C         139.9459  139.9380  164.8254 C.ar    1  UNL1        0.0002
     22 C         140.2977  139.9407  163.3672 C.ar    1  UNL1        0.0016
     23 O         138.8907  139.9298  169.1999 O.3     1  UNL1       -0.4755
     24 C         139.9370  140.2550  170.2244 C.3     1  UNL1        0.2053
     25 C         141.3701  139.8894  169.9750 C.3     1  UNL1        0.0438
     26 C         142.7553  140.2789  169.5511 C.3     1  UNL1        0.0038
     27 C         142.4674  138.8667  169.9667 C.3     1  UNL1        0.0038
     28 C         142.5034  138.0404  157.9584 C.3     1  UNL1        0.1291
     29 C         141.8449  132.9932  154.7815 C.3     1  UNL1        0.0896
     30 N         142.0096  134.2551  155.5757 N.3     1  UNL1       -0.2715
     31 C         141.1097  135.4270  155.3169 C.3     1  UNL1        0.0722
     32 C         141.2743  136.6887  156.1111 C.3     1  UNL1        0.0194
     33 C         142.3388  136.7786  157.1642 C.3     1  UNL1        0.0272
     34 C         143.2386  135.6067  157.4230 C.3     1  UNL1        0.0194
     35 C         143.0740  134.3449  156.6288 C.3     1  UNL1        0.0722
@<TRIPOS>BOND
     1    29    30    1
     2    30    31    1
     3    31    32    1
     4    32    33    1
     5    33    28    1
     6    28     1    1
     7     1     2   ar
     8     2     3   ar
     9     3    13    1
    10    13    14   ar
    11    14    15   ar
    12    15    16   ar
    13    16    17   ar
    14    17    18   ar
    15    18    23    1
    16    23    24    1
    17    24    25    1
    18    25    26    1
    19    26    27    1
    20    18    19   ar
    21    19    20   ar
    22    20    21   ar
    23    21    22   ar
    24     3     4   ar
    25     4     5   ar
    26     5     6    1
    27     5     7   ar
    28     7     8   ar
    29     8     9   ar
    30     9    10   ar
    31    33    34    1
    32    34    35    1
    33    35    30    1
    34    10     1   ar
    35    22    13   ar
    36    10     4   ar
    37    21    16   ar
    38    27    25    1
    39     6    11    1
    40     6    12    1
@<TRIPOS>MOLECULE
*****
 35 40 0 0 0
SMALL
GASTEIGER

@<TRIPOS>ATOM
      1 N         144.0311  141.4640  159.0597 N.ar    1  UNL1       -0.2340
      2 N         144.0071  141.6656  160.5459 N.ar    1  UNL1       -0.1679
      3 C         143.5517  140.3848  161.1801 C.ar    1  UNL1        0.1065
      4 C         143.2942  139.3917  160.0859 C.ar    1  UNL1        0.0860
      5 C         142.8283  137.9662  160.1134 C.ar    1  UNL1        0.1316
      6 N         142.5320  137.2992  161.4239 N.pl3   1  UNL1       -0.3425
      7 N         142.6586  137.2076  158.8306 N.ar    1  UNL1       -0.2093
      8 C         142.9549  137.8745  157.5201 C.ar    1  UNL1        0.2014
      9 N         143.4209  139.3001  157.4926 N.ar    1  UNL1       -0.2050
     10 C         143.5905  140.0586  158.7754 C.ar    1  UNL1        0.1653
     11 H         142.6434  137.7971  162.2659 H       1  UNL1        0.1437
     12 H         142.2262  136.3636  161.4421 H       1  UNL1        0.1437
     13 C         143.3833  140.1401  162.6505 C.ar    1  UNL1        0.0195
     14 C         144.4949  139.5132  163.4386 C.ar    1  UNL1        0.0016
     15 C         144.3265  139.2686  164.9089 C.ar    1  UNL1        0.0001
     16 C         143.0464  139.6508  165.5910 C.ar    1  UNL1        0.0030
     17 C         142.8780  139.4060  167.0613 C.ar    1  UNL1        0.0369
     18 C         141.5979  139.7882  167.7435 C.ar    1  UNL1        0.1386
     19 C         140.4862  140.4151  166.9552 C.ar    1  UNL1        0.0369
     20 C         140.6547  140.6598  165.4850 C.ar    1  UNL1        0.0031
     21 C         141.9348  140.2776  164.8028 C.ar    1  UNL1        0.0002
     22 C         142.1032  140.5223  163.3326 C.ar    1  UNL1        0.0016
     23 O         141.4295  139.5436  169.2137 O.3     1  UNL1       -0.4755
     24 C         142.4452  140.0715  170.1831 C.3     1  UNL1        0.2053
     25 C         142.9195  141.4903  170.0740 C.3     1  UNL1        0.0438
     26 C         144.0300  142.4761  169.8617 C.3     1  UNL1        0.0038
     27 C         142.6306  142.9620  170.0972 C.3     1  UNL1        0.0038
     28 C         144.4263  142.4881  158.0374 C.3     1  UNL1        0.1291
     29 C         149.4764  141.7777  154.8763 C.3     1  UNL1        0.0896
     30 N         148.2138  141.9552  155.6666 N.3     1  UNL1       -0.2715
     31 C         148.2321  142.7443  156.9422 C.3     1  UNL1        0.0722
     32 C         146.9696  142.9219  157.7324 C.3     1  UNL1        0.0194
     33 C         145.6888  142.3105  157.2471 C.3     1  UNL1        0.0272
     34 C         145.6704  141.5214  155.9715 C.3     1  UNL1        0.0194
     35 C         146.9329  141.3438  155.1813 C.3     1  UNL1        0.0722
@<TRIPOS>BOND
     1    29    30    1
     2    30    31    1
     3    31    32    1
     4    32    33    1
     5    33    28    1
     6    28     1    1
     7     1     2   ar
     8     2     3   ar
     9     3    13    1
    10    13    14   ar
    11    14    15   ar
    12    15    16   ar
    13    16    17   ar
    14    17    18   ar
    15    18    23    1
    16    23    24    1
    17    24    25    1
    18    25    26    1
    19    26    27    1
    20    18    19   ar
    21    19    20   ar
    22    20    21   ar
    23    21    22   ar
    24     3     4   ar
    25     4     5   ar
    26     5     6    1
    27     5     7   ar
    28     7     8   ar
    29     8     9   ar
    30     9    10   ar
    31    33    34    1
    32    34    35    1
    33    35    30    1
    34    10     1   ar
    35    22    13   ar
    36    10     4   ar
    37    21    16   ar
    38    27    25    1
    39     6    11    1
    40     6    12    1
@<TRIPOS>MOLECULE
*****
 35 40 0 0 0
SMALL
GASTEIGER

@<TRIPOS>ATOM
      1 N         141.9296  137.8502  157.9728 N.ar    1  UNL1       -0.2340
      2 N         142.0780  137.9504  159.4621 N.ar    1  UNL1       -0.1679
      3 C         140.9198  138.7433  159.9910 C.ar    1  UNL1        0.1065
      4 C         140.0556  139.1332  158.8287 C.ar    1  UNL1        0.0860
      5 C         138.7810  139.9195  158.7449 C.ar    1  UNL1        0.1316
      6 N         138.1569  140.4714  159.9923 N.pl3   1  UNL1       -0.3425
      7 N         138.1304  140.1539  157.4138 N.ar    1  UNL1       -0.2093
      8 C         138.7544  139.6020  156.1665 C.ar    1  UNL1        0.2014
      9 N         140.0291  138.8156  156.2503 N.ar    1  UNL1       -0.2050
     10 C         140.6796  138.5812  157.5813 C.ar    1  UNL1        0.1653
     11 H         138.5839  140.3176  160.8659 H       1  UNL1        0.1437
     12 H         137.3203  140.9875  159.9373 H       1  UNL1        0.1437
     13 C         140.6697  139.0861  161.4298 C.ar    1  UNL1        0.0195
     14 C         141.2361  140.3483  162.0094 C.ar    1  UNL1        0.0016
     15 C         140.9860  140.6911  163.4481 C.ar    1  UNL1        0.0001
     16 C         140.1695  139.7717  164.3072 C.ar    1  UNL1        0.0030
     17 C         139.9194  140.1146  165.7460 C.ar    1  UNL1        0.0369
     18 C         139.1029  139.1952  166.6050 C.ar    1  UNL1        0.1386
     19 C         138.5364  137.9329  166.0253 C.ar    1  UNL1        0.0369
     20 C         138.7866  137.5901  164.5866 C.ar    1  UNL1        0.0031
     21 C         139.6031  138.5095  163.7276 C.ar    1  UNL1        0.0002
     22 C         139.8532  138.1667  162.2889 C.ar    1  UNL1        0.0016
     23 O         138.8528  139.5380  168.0437 O.3     1  UNL1       -0.4755
     24 C         139.8752  140.3159  168.8181 C.3     1  UNL1        0.2053
     25 C         141.2770  139.7967  168.9415 C.3     1  UNL1        0.0438
     26 C         142.4180  139.3270  169.7945 C.3     1  UNL1        0.0038
     27 C         142.5643  139.3674  168.3022 C.3     1  UNL1        0.0038
     28 C         142.8666  137.1432  157.0389 C.3     1  UNL1        0.1291
     29 C         141.8550  131.4233  155.5357 C.3     1  UNL1        0.0896
     30 N         142.1079  132.8533  155.9116 N.3     1  UNL1       -0.2715
     31 C         141.3843  133.9558  155.1969 C.3     1  UNL1        0.0722
     32 C         141.6372  135.3858  155.5727 C.3     1  UNL1        0.0194
     33 C         142.6137  135.7132  156.6631 C.3     1  UNL1        0.0272
     34 C         143.3374  134.6106  157.3778 C.3     1  UNL1        0.0194
     35 C         143.0845  133.1807  157.0020 C.3     1  UNL1        0.0722
@<TRIPOS>BOND
     1    29    30    1
     2    30    31    1
     3    31    32    1
     4    32    33    1
     5    33    28    1
     6    28     1    1
     7     1     2   ar
     8     2     3   ar
     9     3    13    1
    10    13    14   ar
    11    14    15   ar
    12    15    16   ar
    13    16    17   ar
    14    17    18   ar
    15    18    23    1
    16    23    24    1
    17    24    25    1
    18    25    26    1
    19    26    27    1
    20    18    19   ar
    21    19    20   ar
    22    20    21   ar
    23    21    22   ar
    24     3     4   ar
    25     4     5   ar
    26     5     6    1
    27     5     7   ar
    28     7     8   ar
    29     8     9   ar
    30     9    10   ar
    31    33    34    1
    32    34    35    1
    33    35    30    1
    34    10     1   ar
    35    22    13   ar
    36    10     4   ar
    37    21    16   ar
    38    27    25    1
    39     6    11    1
    40     6    12    1
@<TRIPOS>MOLECULE
*****
 35 40 0 0 0
SMALL
GASTEIGER

@<TRIPOS>ATOM
      1 N         143.0772  142.3181  161.7721 N.ar    1  UNL1       -0.2340
      2 N         142.8775  141.6225  163.0860 N.ar    1  UNL1       -0.1679
      3 C         141.7683  142.3202  163.8159 C.ar    1  UNL1        0.1065
      4 C         141.2824  143.4470  162.9532 C.ar    1  UNL1        0.0860
      5 C         140.2079  144.4741  163.1547 C.ar    1  UNL1        0.1316
      6 N         139.3990  144.4753  164.4179 N.pl3   1  UNL1       -0.3425
      7 N         139.9423  145.4998  162.0930 N.ar    1  UNL1       -0.2093
      8 C         140.7512  145.4986  160.8298 C.ar    1  UNL1        0.2014
      9 N         141.8258  144.4714  160.6284 N.ar    1  UNL1       -0.2050
     10 C         142.0913  143.4457  161.6900 C.ar    1  UNL1        0.1653
     11 H         139.5734  143.8021  165.1147 H       1  UNL1        0.1437
     12 H         138.6938  145.1494  164.5501 H       1  UNL1        0.1437
     13 C         141.2380  141.9552  165.1708 C.ar    1  UNL1        0.0195
     14 C         141.7760  142.6350  166.3949 C.ar    1  UNL1        0.0016
     15 C         141.2457  142.2700  167.7497 C.ar    1  UNL1        0.0001
     16 C         140.1774  141.2252  167.8804 C.ar    1  UNL1        0.0030
     17 C         139.6471  140.8602  169.2353 C.ar    1  UNL1        0.0369
     18 C         138.5788  139.8153  169.3660 C.ar    1  UNL1        0.1386
     19 C         138.0409  139.1355  168.1419 C.ar    1  UNL1        0.0369
     20 C         138.5711  139.5005  166.7871 C.ar    1  UNL1        0.0031
     21 C         139.6394  140.5454  166.6564 C.ar    1  UNL1        0.0002
     22 C         140.1697  140.9104  165.3016 C.ar    1  UNL1        0.0016
     23 O         138.0486  139.4503  170.7208 O.3     1  UNL1       -0.4755
     24 C         136.6060  139.0729  170.8849 C.3     1  UNL1        0.2053
     25 C         136.2094  138.0545  171.9123 C.3     1  UNL1        0.0438
     26 C         136.5261  136.8274  172.7147 C.3     1  UNL1        0.0038
     27 C         135.2058  137.5176  172.8892 C.3     1  UNL1        0.0038
     28 C         144.0856  141.9506  160.7242 C.3     1  UNL1        0.1291
     29 C         142.9121  137.5173  156.8552 C.3     1  UNL1        0.0896
     30 N         143.2055  138.6257  157.8225 N.3     1  UNL1       -0.2715
     31 C         142.9916  138.4148  159.2921 C.3     1  UNL1        0.0722
     32 C         143.2850  139.5231  160.2594 C.3     1  UNL1        0.0194
     33 C         143.7922  140.8423  159.7570 C.3     1  UNL1        0.0272
     34 C         144.0061  141.0532  158.2873 C.3     1  UNL1        0.0194
     35 C         143.7127  139.9449  157.3201 C.3     1  UNL1        0.0722
@<TRIPOS>BOND
     1    29    30    1
     2    30    31    1
     3    31    32    1
     4    32    33    1
     5    33    28    1
     6    28     1    1
     7     1     2   ar
     8     2     3   ar
     9     3    13    1
    10    13    14   ar
    11    14    15   ar
    12    15    16   ar
    13    16    17   ar
    14    17    18   ar
    15    18    23    1
    16    23    24    1
    17    24    25    1
    18    25    26    1
    19    26    27    1
    20    18    19   ar
    21    19    20   ar
    22    20    21   ar
    23    21    22   ar
    24     3     4   ar
    25     4     5   ar
    26     5     6    1
    27     5     7   ar
    28     7     8   ar
    29     8     9   ar
    30     9    10   ar
    31    33    34    1
    32    34    35    1
    33    35    30    1
    34    10     1   ar
    35    22    13   ar
    36    10     4   ar
    37    21    16   ar
    38    27    25    1
    39     6    11    1
    40     6    12    1
@<TRIPOS>MOLECULE
*****
 35 40 0 0 0
SMALL
GASTEIGER

@<TRIPOS>ATOM
      1 N         142.2975  137.6257  158.2306 N.ar    1  UNL1       -0.2340
      2 N         142.7771  137.5782  159.6510 N.ar    1  UNL1       -0.1679
      3 C         141.7867  138.3192  160.4996 C.ar    1  UNL1        0.1065
      4 C         140.6951  138.8246  159.6036 C.ar    1  UNL1        0.0860
      5 C         139.4544  139.6198  159.8836 C.ar    1  UNL1        0.1316
      6 N         139.1387  140.0484  161.2860 N.pl3   1  UNL1       -0.3425
      7 N         138.5293  139.9864  158.7611 N.ar    1  UNL1       -0.2093
      8 C         138.8449  139.5578  157.3588 C.ar    1  UNL1        0.2014
      9 N         140.0857  138.7626  157.0789 N.ar    1  UNL1       -0.2050
     10 C         141.0107  138.3961  158.2013 C.ar    1  UNL1        0.1653
     11 H         139.7459  139.8078  162.0226 H       1  UNL1        0.1437
     12 H         138.3244  140.5702  161.4697 H       1  UNL1        0.1437
     13 C         141.8729  138.5196  161.9838 C.ar    1  UNL1        0.0195
     14 C         141.3491  137.4663  162.9144 C.ar    1  UNL1        0.0016
     15 C         141.4353  137.6667  164.3984 C.ar    1  UNL1        0.0001
     16 C         142.0453  138.9204  164.9518 C.ar    1  UNL1        0.0030
     17 C         142.1314  139.1208  166.4359 C.ar    1  UNL1        0.0369
     18 C         142.7414  140.3745  166.9892 C.ar    1  UNL1        0.1386
     19 C         143.2653  141.4278  166.0585 C.ar    1  UNL1        0.0369
     20 C         143.1791  141.2274  164.5745 C.ar    1  UNL1        0.0031
     21 C         142.5691  139.9737  164.0211 C.ar    1  UNL1        0.0002
     22 C         142.4829  139.7733  162.5371 C.ar    1  UNL1        0.0016
     23 O         142.8276  140.5749  168.4733 O.3     1  UNL1       -0.4755
     24 C         142.7987  141.9611  169.0458 C.3     1  UNL1        0.2053
     25 C         141.5022  142.7106  169.1307 C.3     1  UNL1        0.0438
     26 C         140.4761  143.4433  169.9432 C.3     1  UNL1        0.0038
     27 C         140.2826  143.2760  168.4652 C.3     1  UNL1        0.0038
     28 C         142.9841  137.0108  157.0471 C.3     1  UNL1        0.1291
     29 C         142.0499  131.2387  155.7016 C.3     1  UNL1        0.0896
     30 N         142.2835  132.6818  156.0380 N.3     1  UNL1       -0.2715
     31 C         141.5355  133.7540  155.3025 C.3     1  UNL1        0.0722
     32 C         141.7690  135.1970  155.6389 C.3     1  UNL1        0.0194
     33 C         142.7506  135.5678  156.7108 C.3     1  UNL1        0.0272
     34 C         143.4986  134.4957  157.4463 C.3     1  UNL1        0.0194
     35 C         143.2651  133.0527  157.1099 C.3     1  UNL1        0.0722
@<TRIPOS>BOND
     1    29    30    1
     2    30    31    1
     3    31    32    1
     4    32    33    1
     5    33    28    1
     6    28     1    1
     7     1     2   ar
     8     2     3   ar
     9     3    13    1
    10    13    14   ar
    11    14    15   ar
    12    15    16   ar
    13    16    17   ar
    14    17    18   ar
    15    18    23    1
    16    23    24    1
    17    24    25    1
    18    25    26    1
    19    26    27    1
    20    18    19   ar
    21    19    20   ar
    22    20    21   ar
    23    21    22   ar
    24     3     4   ar
    25     4     5   ar
    26     5     6    1
    27     5     7   ar
    28     7     8   ar
    29     8     9   ar
    30     9    10   ar
    31    33    34    1
    32    34    35    1
    33    35    30    1
    34    10     1   ar
    35    22    13   ar
    36    10     4   ar
    37    21    16   ar
    38    27    25    1
    39     6    11    1
    40     6    12    1
@<TRIPOS>MOLECULE
*****
 35 40 0 0 0
SMALL
GASTEIGER

@<TRIPOS>ATOM
      1 N         144.0905  142.6583  159.1827 N.ar    1  UNL1       -0.2340
      2 N         144.4345  142.1983  160.5684 N.ar    1  UNL1       -0.1679
      3 C         143.4573  142.8226  161.5199 C.ar    1  UNL1        0.1065
      4 C         142.5094  143.6684  160.7223 C.ar    1  UNL1        0.0860
      5 C         141.3405  144.5179  161.1247 C.ar    1  UNL1        0.1316
      6 N         140.9492  144.6195  162.5692 N.pl3   1  UNL1       -0.3425
      7 N         140.5629  145.2659  160.0826 N.ar    1  UNL1       -0.2093
      8 C         140.9542  145.1643  158.6381 C.ar    1  UNL1        0.2014
      9 N         142.1232  144.3147  158.2358 N.ar    1  UNL1       -0.2050
     10 C         142.9007  143.5668  159.2778 C.ar    1  UNL1        0.1653
     11 H         141.4596  144.1286  163.2531 H       1  UNL1        0.1437
     12 H         140.1820  145.1770  162.8333 H       1  UNL1        0.1437
     13 C         143.4324  142.6342  163.0079 C.ar    1  UNL1        0.0195
     14 C         144.0773  143.6501  163.9034 C.ar    1  UNL1        0.0016
     15 C         144.0524  143.4617  165.3913 C.ar    1  UNL1        0.0001
     16 C         143.3825  142.2574  165.9836 C.ar    1  UNL1        0.0030
     17 C         143.3576  142.0690  167.4716 C.ar    1  UNL1        0.0369
     18 C         142.6876  140.8647  168.0640 C.ar    1  UNL1        0.1386
     19 C         142.0427  139.8488  167.1684 C.ar    1  UNL1        0.0369
     20 C         142.0676  140.0373  165.6805 C.ar    1  UNL1        0.0031
     21 C         142.7375  141.2415  165.0881 C.ar    1  UNL1        0.0002
     22 C         142.7625  141.4300  163.6003 C.ar    1  UNL1        0.0016
     23 O         142.6627  140.6763  169.5519 O.3     1  UNL1       -0.4755
     24 C         141.3900  140.8971  170.3146 C.3     1  UNL1        0.2053
     25 C         140.6827  142.2169  170.2274 C.3     1  UNL1        0.0438
     26 C         139.6538  143.1762  170.7480 C.3     1  UNL1        0.0038
     27 C         140.4865  143.5437  169.5557 C.3     1  UNL1        0.0038
     28 C         144.8100  142.2766  157.9231 C.3     1  UNL1        0.1291
     29 C         143.7666  136.9487  155.3687 C.3     1  UNL1        0.0896
     30 N         144.0274  138.2808  156.0073 N.3     1  UNL1       -0.2715
     31 C         145.0924  139.1814  155.4554 C.3     1  UNL1        0.0722
     32 C         145.3533  140.5134  156.0940 C.3     1  UNL1        0.0194
     33 C         144.5492  140.9447  157.2845 C.3     1  UNL1        0.0272
     34 C         143.4842  140.0440  157.8364 C.3     1  UNL1        0.0194
     35 C         143.2233  138.7121  157.1978 C.3     1  UNL1        0.0722
@<TRIPOS>BOND
     1    29    30    1
     2    30    31    1
     3    31    32    1
     4    32    33    1
     5    33    28    1
     6    28     1    1
     7     1     2   ar
     8     2     3   ar
     9     3    13    1
    10    13    14   ar
    11    14    15   ar
    12    15    16   ar
    13    16    17   ar
    14    17    18   ar
    15    18    23    1
    16    23    24    1
    17    24    25    1
    18    25    26    1
    19    26    27    1
    20    18    19   ar
    21    19    20   ar
    22    20    21   ar
    23    21    22   ar
    24     3     4   ar
    25     4     5   ar
    26     5     6    1
    27     5     7   ar
    28     7     8   ar
    29     8     9   ar
    30     9    10   ar
    31    33    34    1
    32    34    35    1
    33    35    30    1
    34    10     1   ar
    35    22    13   ar
    36    10     4   ar
    37    21    16   ar
    38    27    25    1
    39     6    11    1
    40     6    12    1
@<TRIPOS>MOLECULE
*****
 35 40 0 0 0
SMALL
GASTEIGER

@<TRIPOS>ATOM
      1 N         142.7029  137.8661  156.2619 N.ar    1  UNL1       -0.2340
      2 N         141.6828  137.4986  157.2984 N.ar    1  UNL1       -0.1679
      3 C         141.8188  138.4582  158.4433 C.ar    1  UNL1        0.1065
      4 C         142.9229  139.4188  158.1143 C.ar    1  UNL1        0.0860
      5 C         143.5014  140.5794  158.8682 C.ar    1  UNL1        0.1316
      6 N         142.9549  140.9453  160.2163 N.pl3   1  UNL1       -0.3425
      7 N         144.6262  141.3741  158.2739 N.ar    1  UNL1       -0.2093
      8 C         145.1726  141.0082  156.9258 C.ar    1  UNL1        0.2014
      9 N         144.5941  139.8475  156.1719 N.ar    1  UNL1       -0.2050
     10 C         143.4693  139.0529  156.7661 C.ar    1  UNL1        0.1653
     11 H         142.2167  140.4237  160.6063 H       1  UNL1        0.1437
     12 H         143.3346  141.7071  160.7111 H       1  UNL1        0.1437
     13 C         140.9952  138.4574  159.6970 C.ar    1  UNL1        0.0195
     14 C         139.6071  139.0257  159.6829 C.ar    1  UNL1        0.0016
     15 C         138.7837  139.0248  160.9366 C.ar    1  UNL1        0.0001
     16 C         139.3483  138.4558  162.2044 C.ar    1  UNL1        0.0030
     17 C         138.5247  138.4550  163.4582 C.ar    1  UNL1        0.0369
     18 C         139.0893  137.8859  164.7260 C.ar    1  UNL1        0.1386
     19 C         140.4775  137.3176  164.7401 C.ar    1  UNL1        0.0369
     20 C         141.3010  137.3184  163.4864 C.ar    1  UNL1        0.0031
     21 C         140.7364  137.8875  162.2185 C.ar    1  UNL1        0.0002
     22 C         141.5598  137.8883  160.9648 C.ar    1  UNL1        0.0016
     23 O         138.2658  137.8850  165.9797 O.3     1  UNL1       -0.4755
     24 C         138.2376  139.0998  166.8593 C.3     1  UNL1        0.2053
     25 C         139.3668  140.0860  166.8127 C.3     1  UNL1        0.0438
     26 C         139.9465  141.3742  166.3084 C.3     1  UNL1        0.0038
     27 C         140.7432  140.5057  167.2362 C.3     1  UNL1        0.0038
     28 C         142.9186  137.1692  154.9512 C.3     1  UNL1        0.1291
     29 C         143.2948  131.1840  154.7621 C.3     1  UNL1        0.0896
     30 N         143.2008  132.6804  154.8094 N.3     1  UNL1       -0.2715
     31 C         143.8917  133.4412  155.9020 C.3     1  UNL1        0.0722
     32 C         143.7977  134.9374  155.9493 C.3     1  UNL1        0.0194
     33 C         143.0127  135.6730  154.9039 C.3     1  UNL1        0.0272
     34 C         142.3218  134.9122  153.8113 C.3     1  UNL1        0.0194
     35 C         142.4158  133.4159  153.7640 C.3     1  UNL1        0.0722
@<TRIPOS>BOND
     1    29    30    1
     2    30    31    1
     3    31    32    1
     4    32    33    1
     5    33    28    1
     6    28     1    1
     7     1     2   ar
     8     2     3   ar
     9     3    13    1
    10    13    14   ar
    11    14    15   ar
    12    15    16   ar
    13    16    17   ar
    14    17    18   ar
    15    18    23    1
    16    23    24    1
    17    24    25    1
    18    25    26    1
    19    26    27    1
    20    18    19   ar
    21    19    20   ar
    22    20    21   ar
    23    21    22   ar
    24     3     4   ar
    25     4     5   ar
    26     5     6    1
    27     5     7   ar
    28     7     8   ar
    29     8     9   ar
    30     9    10   ar
    31    33    34    1
    32    34    35    1
    33    35    30    1
    34    10     1   ar
    35    22    13   ar
    36    10     4   ar
    37    21    16   ar
    38    27    25    1
    39     6    11    1
    40     6    12    1
@<TRIPOS>MOLECULE
*****
 35 40 0 0 0
SMALL
GASTEIGER

@<TRIPOS>ATOM
      1 N         140.2083  140.3512  159.4730 N.ar    1  UNL1       -0.2340
      2 N         139.8037  139.8061  160.8106 N.ar    1  UNL1       -0.1679
      3 C         140.3272  140.7337  161.8668 C.ar    1  UNL1        0.1065
      4 C         141.0554  141.8521  161.1820 C.ar    1  UNL1        0.0860
      5 C         141.7758  143.0552  161.7144 C.ar    1  UNL1        0.1316
      6 N         141.8493  143.2915  163.1938 N.pl3   1  UNL1       -0.3425
      7 N         142.4228  144.0220  160.7674 N.ar    1  UNL1       -0.2093
      8 C         142.3493  143.7856  159.2880 C.ar    1  UNL1        0.2014
      9 N         141.6288  142.5825  158.7556 N.ar    1  UNL1       -0.2050
     10 C         140.9819  141.6158  159.7025 C.ar    1  UNL1        0.1653
     11 H         141.4247  142.6570  163.8153 H       1  UNL1        0.1437
     12 H         142.3222  144.0812  163.5433 H       1  UNL1        0.1437
     13 C         140.1532  140.5714  163.3478 C.ar    1  UNL1        0.0195
     14 C         138.7975  140.7413  163.9668 C.ar    1  UNL1        0.0016
     15 C         138.6235  140.5790  165.4477 C.ar    1  UNL1        0.0001
     16 C         139.8052  140.2467  166.3098 C.ar    1  UNL1        0.0030
     17 C         139.6312  140.0844  167.7908 C.ar    1  UNL1        0.0369
     18 C         140.8129  139.7522  168.6529 C.ar    1  UNL1        0.1386
     19 C         142.1687  139.5822  168.0339 C.ar    1  UNL1        0.0369
     20 C         142.3427  139.7446  166.5529 C.ar    1  UNL1        0.0031
     21 C         141.1609  140.0768  165.6909 C.ar    1  UNL1        0.0002
     22 C         141.3349  140.2391  164.2099 C.ar    1  UNL1        0.0016
     23 O         140.6389  139.5899  170.1339 O.3     1  UNL1       -0.4755
     24 C         140.7250  140.7862  171.0348 C.3     1  UNL1        0.2053
     25 C         140.9007  142.1555  170.4484 C.3     1  UNL1        0.0438
     26 C         141.7976  143.2570  169.9664 C.3     1  UNL1        0.0038
     27 C         140.3081  143.4259  169.9147 C.3     1  UNL1        0.0038
     28 C         139.8944  139.7393  158.1400 C.3     1  UNL1        0.1291
     29 C         142.9738  134.9549  156.2354 C.3     1  UNL1        0.0896
     30 N         142.2039  136.1511  156.7115 N.3     1  UNL1       -0.2715
     31 C         140.8929  136.5022  156.0727 C.3     1  UNL1        0.0722
     32 C         140.1231  137.6983  156.5488 C.3     1  UNL1        0.0194
     33 C         140.6643  138.5432  157.6638 C.3     1  UNL1        0.0272
     34 C         141.9752  138.1921  158.3027 C.3     1  UNL1        0.0194
     35 C         142.7451  136.9960  157.8265 C.3     1  UNL1        0.0722
@<TRIPOS>BOND
     1    29    30    1
     2    30    31    1
     3    31    32    1
     4    32    33    1
     5    33    28    1
     6    28     1    1
     7     1     2   ar
     8     2     3   ar
     9     3    13    1
    10    13    14   ar
    11    14    15   ar
    12    15    16   ar
    13    16    17   ar
    14    17    18   ar
    15    18    23    1
    16    23    24    1
    17    24    25    1
    18    25    26    1
    19    26    27    1
    20    18    19   ar
    21    19    20   ar
    22    20    21   ar
    23    21    22   ar
    24     3     4   ar
    25     4     5   ar
    26     5     6    1
    27     5     7   ar
    28     7     8   ar
    29     8     9   ar
    30     9    10   ar
    31    33    34    1
    32    34    35    1
    33    35    30    1
    34    10     1   ar
    35    22    13   ar
    36    10     4   ar
    37    21    16   ar
    38    27    25    1
    39     6    11    1
    40     6    12    1
@<TRIPOS>MOLECULE
*****
 35 40 0 0 0
SMALL
GASTEIGER

@<TRIPOS>ATOM
      1 N         139.0027  139.6976  163.9536 N.ar    1  UNL1       -0.2340
      2 N         139.7704  138.8275  163.0031 N.ar    1  UNL1       -0.1679
      3 C         139.9061  139.5664  161.7048 C.ar    1  UNL1        0.1065
      4 C         139.2222  140.8932  161.8529 C.ar    1  UNL1        0.0860
      5 C         139.0358  142.0380  160.9017 C.ar    1  UNL1        0.1316
      6 N         139.5941  141.9568  159.5119 N.pl3   1  UNL1       -0.3425
      7 N         138.2910  143.2639  161.3404 N.ar    1  UNL1       -0.2093
      8 C         137.7326  143.3450  162.7302 C.ar    1  UNL1        0.2014
      9 N         137.9191  142.2002  163.6814 N.ar    1  UNL1       -0.2050
     10 C         138.6639  140.9743  163.2427 C.ar    1  UNL1        0.1653
     11 H         140.0830  141.1522  159.2240 H       1  UNL1        0.1437
     12 H         139.4718  142.7082  158.8876 H       1  UNL1        0.1437
     13 C         140.6033  139.0663  160.4743 C.ar    1  UNL1        0.0195
     14 C         142.1020  139.0349  160.4220 C.ar    1  UNL1        0.0016
     15 C         142.7991  138.5349  159.1916 C.ar    1  UNL1        0.0001
     16 C         141.9975  138.0662  158.0135 C.ar    1  UNL1        0.0030
     17 C         142.6947  137.5661  156.7831 C.ar    1  UNL1        0.0369
     18 C         141.8931  137.0974  155.6051 C.ar    1  UNL1        0.1386
     19 C         140.3943  137.1287  155.6575 C.ar    1  UNL1        0.0369
     20 C         139.6972  137.6288  156.8879 C.ar    1  UNL1        0.0031
     21 C         140.4988  138.0975  158.0659 C.ar    1  UNL1        0.0002
     22 C         139.8017  138.5976  159.2963 C.ar    1  UNL1        0.0016
     23 O         142.5902  136.5973  154.3747 O.3     1  UNL1       -0.4755
     24 C         142.3659  135.1904  153.9050 C.3     1  UNL1        0.2053
     25 C         142.1463  134.0926  154.9032 C.3     1  UNL1        0.0438
     26 C         142.4762  133.4445  156.2151 C.3     1  UNL1        0.0038
     27 C         141.4359  132.8390  155.3201 C.3     1  UNL1        0.0038
     28 C         138.6378  139.3518  165.3669 C.3     1  UNL1        0.1291
     29 C         142.6152  140.1836  169.7815 C.3     1  UNL1        0.0896
     30 N         141.6208  139.9756  168.6778 N.3     1  UNL1       -0.2715
     31 C         140.1514  140.0662  168.9652 C.3     1  UNL1        0.0722
     32 C         139.1571  139.8583  167.8616 C.3     1  UNL1        0.0194
     33 C         139.6322  139.5597  166.4705 C.3     1  UNL1        0.0272
     34 C         141.1016  139.4691  166.1830 C.3     1  UNL1        0.0194
     35 C         142.0959  139.6771  167.2867 C.3     1  UNL1        0.0722
@<TRIPOS>BOND
     1    29    30    1
     2    30    31    1
     3    31    32    1
     4    32    33    1
     5    33    28    1
     6    28     1    1
     7     1     2   ar
     8     2     3   ar
     9     3    13    1
    10    13    14   ar
    11    14    15   ar
    12    15    16   ar
    13    16    17   ar
    14    17    18   ar
    15    18    23    1
    16    23    24    1
    17    24    25    1
    18    25    26    1
    19    26    27    1
    20    18    19   ar
    21    19    20   ar
    22    20    21   ar
    23    21    22   ar
    24     3     4   ar
    25     4     5   ar
    26     5     6    1
    27     5     7   ar
    28     7     8   ar
    29     8     9   ar
    30     9    10   ar
    31    33    34    1
    32    34    35    1
    33    35    30    1
    34    10     1   ar
    35    22    13   ar
    36    10     4   ar
    37    21    16   ar
    38    27    25    1
    39     6    11    1
    40     6    12    1
