@<TRIPOS>MOLECULE
*****
 28 31 0 0 0
SMALL
GASTEIGER

@<TRIPOS>ATOM
      1 C         141.8135  144.1266  161.9146 C.ar    1  UNL1        0.1841
      2 N         141.8220  145.1922  162.9702 N.ar    1  UNL1       -0.1274
      3 N         141.7425  144.5195  164.3085 N.ar    1  UNL1       -0.1315
      4 C         141.6848  143.0381  164.0801 C.ar    1  UNL1        0.1636
      5 N         141.7287  142.7953  162.6005 N.ar    1  UNL1       -0.2944
      6 C         141.6857  141.3933  162.0690 C.3     1  UNL1        0.1285
      7 C         141.5989  140.2341  163.0171 C.3     1  UNL1        0.0987
      8 C         141.5560  138.8321  162.4856 C.3     1  UNL1        0.0236
      9 N         141.5550  140.4769  164.4966 N.am    1  UNL1       -0.2687
     10 C         141.4682  139.3178  165.4447 C.2     1  UNL1        0.2502
     11 O         141.4253  137.9158  164.9132 O.2     1  UNL1       -0.2699
     12 C         141.5980  141.8790  165.0281 C.3     1  UNL1        0.1598
     13 C         141.4243  139.5607  166.9242 C.ar    1  UNL1        0.0650
     14 C         142.6912  139.5325  167.7268 C.ar    1  UNL1        0.0054
     15 C         142.6474  139.7754  169.2063 C.ar    1  UNL1        0.0011
     16 C         141.3366  140.0464  169.8834 C.ar    1  UNL1        0.0123
     17 C         140.0697  140.0745  169.0808 C.ar    1  UNL1        0.0683
     18 CL        138.7588  140.3455  169.7578 Cl      1  UNL1       -0.0814
     19 C         140.1136  139.8317  167.6012 C.ar    1  UNL1        0.0725
     20 CL        138.8466  139.8598  166.7987 Cl      1  UNL1       -0.0812
     21 C         140.9623  145.5002  158.2898 C.ar    1  UNL1        0.1419
     22 C         142.0082  144.8043  157.4701 C.ar    1  UNL1        0.0576
     23 C         142.9892  143.8826  158.1319 C.ar    1  UNL1        0.1021
     24 N         142.9242  143.6567  159.6134 N.ar    1  UNL1       -0.2405
     25 C         141.8783  144.3525  160.4331 C.ar    1  UNL1        0.1201
     26 C         140.8973  145.2743  159.7714 C.ar    1  UNL1        0.0591
     27 C         139.8010  146.3819  156.1395 C.3     1  UNL1        0.2525
     28 O         139.9813  146.4220  157.6281 O.3     1  UNL1       -0.4713
@<TRIPOS>BOND
     1    27    28    1
     2    28    21    1
     3    21    22   ar
     4    22    23   ar
     5    23    24   ar
     6    24    25   ar
     7    25     1    1
     8     1     2   ar
     9     2     3   ar
    10     3     4   ar
    11     4     5   ar
    12     5     6    1
    13     6     7    1
    14     7     8    1
    15     7     9    1
    16     9    10   am
    17    10    11    2
    18    10    13    1
    19    13    14   ar
    20    14    15   ar
    21    15    16   ar
    22    16    17   ar
    23    17    18    1
    24    17    19   ar
    25    19    20    1
    26     9    12    1
    27    25    26   ar
    28    26    21   ar
    29     5     1   ar
    30    19    13   ar
    31    12     4    1
@<TRIPOS>MOLECULE
*****
 28 31 0 0 0
SMALL
GASTEIGER

@<TRIPOS>ATOM
      1 C         138.8202  143.2017  161.7484 C.ar    1  UNL1        0.1841
      2 N         138.1205  144.2931  162.5029 N.ar    1  UNL1       -0.1274
      3 N         138.3480  144.0633  163.9677 N.ar    1  UNL1       -0.1315
      4 C         139.1883  142.8299  164.1184 C.ar    1  UNL1        0.1636
      5 N         139.4801  142.2974  162.7468 N.ar    1  UNL1       -0.2944
      6 C         140.3090  141.0579  162.5842 C.3     1  UNL1        0.1285
      7 C         140.8462  140.3508  163.7933 C.3     1  UNL1        0.0987
      8 C         141.6751  139.1113  163.6306 C.3     1  UNL1        0.0236
      9 N         140.5543  140.8833  165.1648 N.am    1  UNL1       -0.2687
     10 C         141.0914  140.1764  166.3738 C.2     1  UNL1        0.2502
     11 O         141.9203  138.9369  166.2112 O.2     1  UNL1       -0.2699
     12 C         139.7253  142.1229  165.3274 C.3     1  UNL1        0.1598
     13 C         140.7995  140.7089  167.7454 C.ar    1  UNL1        0.0650
     14 C         139.5927  140.2283  168.4954 C.ar    1  UNL1        0.0054
     15 C         139.3008  140.7608  169.8670 C.ar    1  UNL1        0.0011
     16 C         140.2158  141.7739  170.4886 C.ar    1  UNL1        0.0123
     17 C         141.4226  142.2545  169.7386 C.ar    1  UNL1        0.0683
     18 CL        142.3377  143.2676  170.3602 Cl      1  UNL1       -0.0814
     19 C         141.7145  141.7220  168.3670 C.ar    1  UNL1        0.0725
     20 CL        142.9214  142.2026  167.6170 Cl      1  UNL1       -0.0812
     21 C         138.1631  141.7418  158.1170 C.ar    1  UNL1        0.1419
     22 C         138.9219  142.7242  157.2749 C.ar    1  UNL1        0.0576
     23 C         139.6468  143.8657  157.9240 C.ar    1  UNL1        0.1021
     24 N         139.6129  144.0248  159.4152 N.ar    1  UNL1       -0.2405
     25 C         138.8541  143.0425  160.2573 C.ar    1  UNL1        0.1201
     26 C         138.1292  141.9009  159.6082 C.ar    1  UNL1        0.0591
     27 C         136.3828  140.8711  156.4370 C.3     1  UNL1        0.2525
     28 O         137.4382  140.6002  157.4680 O.3     1  UNL1       -0.4713
@<TRIPOS>BOND
     1    27    28    1
     2    28    21    1
     3    21    22   ar
     4    22    23   ar
     5    23    24   ar
     6    24    25   ar
     7    25     1    1
     8     1     2   ar
     9     2     3   ar
    10     3     4   ar
    11     4     5   ar
    12     5     6    1
    13     6     7    1
    14     7     8    1
    15     7     9    1
    16     9    10   am
    17    10    11    2
    18    10    13    1
    19    13    14   ar
    20    14    15   ar
    21    15    16   ar
    22    16    17   ar
    23    17    18    1
    24    17    19   ar
    25    19    20    1
    26     9    12    1
    27    25    26   ar
    28    26    21   ar
    29     5     1   ar
    30    19    13   ar
    31    12     4    1
@<TRIPOS>MOLECULE
*****
 28 31 0 0 0
SMALL
GASTEIGER

@<TRIPOS>ATOM
      1 C         139.4932  144.0701  162.1855 C.ar    1  UNL1        0.1841
      2 N         138.9578  145.1994  163.0150 N.ar    1  UNL1       -0.1274
      3 N         139.1414  144.8407  164.4598 N.ar    1  UNL1       -0.1315
      4 C         139.7902  143.4897  164.5233 C.ar    1  UNL1        0.1636
      5 N         140.0076  143.0135  163.1176 N.ar    1  UNL1       -0.2944
      6 C         140.6459  141.6792  162.8681 C.3     1  UNL1        0.1285
      7 C         141.0668  140.8211  164.0242 C.3     1  UNL1        0.0987
      8 C         141.7051  139.4869  163.7747 C.3     1  UNL1        0.0236
      9 N         140.8494  141.2974  165.4299 N.am    1  UNL1       -0.2687
     10 C         141.2702  140.4394  166.5860 C.2     1  UNL1        0.2502
     11 O         141.9085  139.1051  166.3365 O.2     1  UNL1       -0.2699
     12 C         140.2110  142.6317  165.6794 C.3     1  UNL1        0.1598
     13 C         141.0528  140.9156  167.9917 C.ar    1  UNL1        0.0650
     14 C         139.8459  140.4629  168.7587 C.ar    1  UNL1        0.0054
     15 C         139.6285  140.9392  170.1644 C.ar    1  UNL1        0.0011
     16 C         140.6180  141.8681  170.8030 C.ar    1  UNL1        0.0123
     17 C         141.8248  142.3209  170.0360 C.ar    1  UNL1        0.0683
     18 CL        142.8144  143.2499  170.6746 Cl      1  UNL1       -0.0814
     19 C         142.0423  141.8446  168.6303 C.ar    1  UNL1        0.0725
     20 CL        143.2492  142.2974  167.8633 Cl      1  UNL1       -0.0812
     21 C         140.3259  144.9475  158.4057 C.ar    1  UNL1        0.1419
     22 C         139.5466  143.8845  157.6896 C.ar    1  UNL1        0.0576
     23 C         138.7495  142.8834  158.4721 C.ar    1  UNL1        0.1021
     24 N         138.7317  142.9453  159.9707 N.ar    1  UNL1       -0.2405
     25 C         139.5110  144.0083  160.6868 C.ar    1  UNL1        0.1201
     26 C         140.3081  145.0094  159.9043 C.ar    1  UNL1        0.0591
     27 C         142.1344  145.4819  156.6186 C.3     1  UNL1        0.2525
     28 O         141.1229  145.9486  157.6231 O.3     1  UNL1       -0.4713
@<TRIPOS>BOND
     1    27    28    1
     2    28    21    1
     3    21    22   ar
     4    22    23   ar
     5    23    24   ar
     6    24    25   ar
     7    25     1    1
     8     1     2   ar
     9     2     3   ar
    10     3     4   ar
    11     4     5   ar
    12     5     6    1
    13     6     7    1
    14     7     8    1
    15     7     9    1
    16     9    10   am
    17    10    11    2
    18    10    13    1
    19    13    14   ar
    20    14    15   ar
    21    15    16   ar
    22    16    17   ar
    23    17    18    1
    24    17    19   ar
    25    19    20    1
    26     9    12    1
    27    25    26   ar
    28    26    21   ar
    29     5     1   ar
    30    19    13   ar
    31    12     4    1
@<TRIPOS>MOLECULE
*****
 28 31 0 0 0
SMALL
GASTEIGER

@<TRIPOS>ATOM
      1 C         139.9882  144.3933  161.7365 C.ar    1  UNL1        0.1841
      2 N         138.9699  145.2485  162.4304 N.ar    1  UNL1       -0.1274
      3 N         138.9816  144.8931  163.8876 N.ar    1  UNL1       -0.1315
      4 C         140.0072  143.8182  164.0944 C.ar    1  UNL1        0.1636
      5 N         140.6293  143.5093  162.7649 N.ar    1  UNL1       -0.2944
      6 C         141.6992  142.4630  162.6624 C.3     1  UNL1        0.1285
      7 C         142.1470  141.7255  163.8895 C.3     1  UNL1        0.0987
      8 C         143.2169  140.6792  163.7871 C.3     1  UNL1        0.0236
      9 N         141.5249  142.0343  165.2190 N.am    1  UNL1       -0.2687
     10 C         141.9726  141.2969  166.4460 C.2     1  UNL1        0.2502
     11 O         143.0425  140.2506  166.3436 O.2     1  UNL1       -0.2699
     12 C         140.4549  143.0807  165.3214 C.3     1  UNL1        0.1598
     13 C         141.3505  141.6058  167.7755 C.ar    1  UNL1        0.0650
     14 C         141.8989  142.7175  168.6201 C.ar    1  UNL1        0.0054
     15 C         141.2768  143.0264  169.9496 C.ar    1  UNL1        0.0011
     16 C         140.1062  142.2236  170.4345 C.ar    1  UNL1        0.0123
     17 C         139.5578  141.1119  169.5900 C.ar    1  UNL1        0.0683
     18 CL        138.3872  140.3089  170.0749 Cl      1  UNL1       -0.0814
     19 C         140.1799  140.8030  168.2605 C.ar    1  UNL1        0.0725
     20 CL        139.6315  139.6912  167.4159 Cl      1  UNL1       -0.0812
     21 C         139.9050  143.5276  157.8644 C.ar    1  UNL1        0.1419
     22 C         140.9511  144.4668  157.3413 C.ar    1  UNL1        0.0576
     23 C         141.6763  145.3815  158.2834 C.ar    1  UNL1        0.1021
     24 N         141.3553  145.3569  159.7484 N.ar    1  UNL1       -0.2405
     25 C         140.3092  144.4178  160.2715 C.ar    1  UNL1        0.1201
     26 C         139.5840  143.5031  159.3294 C.ar    1  UNL1        0.0591
     27 C         137.7033  142.7714  156.7109 C.3     1  UNL1        0.2525
     28 O         139.1798  142.6129  156.9223 O.3     1  UNL1       -0.4713
@<TRIPOS>BOND
     1    27    28    1
     2    28    21    1
     3    21    22   ar
     4    22    23   ar
     5    23    24   ar
     6    24    25   ar
     7    25     1    1
     8     1     2   ar
     9     2     3   ar
    10     3     4   ar
    11     4     5   ar
    12     5     6    1
    13     6     7    1
    14     7     8    1
    15     7     9    1
    16     9    10   am
    17    10    11    2
    18    10    13    1
    19    13    14   ar
    20    14    15   ar
    21    15    16   ar
    22    16    17   ar
    23    17    18    1
    24    17    19   ar
    25    19    20    1
    26     9    12    1
    27    25    26   ar
    28    26    21   ar
    29     5     1   ar
    30    19    13   ar
    31    12     4    1
@<TRIPOS>MOLECULE
*****
 28 31 0 0 0
SMALL
GASTEIGER

@<TRIPOS>ATOM
      1 C         139.2144  143.7192  161.7397 C.ar    1  UNL1        0.1841
      2 N         138.1345  144.4944  162.4347 N.ar    1  UNL1       -0.1274
      3 N         138.2582  144.2425  163.9082 N.ar    1  UNL1       -0.1315
      4 C         139.4146  143.3118  164.1239 C.ar    1  UNL1        0.1636
      5 N         140.0056  142.9884  162.7837 N.ar    1  UNL1       -0.2944
      6 C         141.1877  142.0701  162.6872 C.3     1  UNL1        0.1285
      7 C         141.7790  141.4753  163.9309 C.3     1  UNL1        0.0987
      8 C         142.9611  140.5571  163.8343 C.3     1  UNL1        0.0236
      9 N         141.1880  141.7987  165.2711 N.am    1  UNL1       -0.2687
     10 C         141.7792  141.2039  166.5147 C.2     1  UNL1        0.2502
     11 O         142.9613  140.2857  166.4181 O.2     1  UNL1       -0.2699
     12 C         140.0058  142.7170  165.3676 C.3     1  UNL1        0.1598
     13 C         141.1882  141.5273  167.8549 C.ar    1  UNL1        0.0650
     14 C         141.7565  142.6476  168.6746 C.ar    1  UNL1        0.0054
     15 C         141.1656  142.9710  170.0148 C.ar    1  UNL1        0.0011
     16 C         140.0063  142.1742  170.5353 C.ar    1  UNL1        0.0123
     17 C         139.4379  141.0539  169.7156 C.ar    1  UNL1        0.0683
     18 CL        138.2785  140.2570  170.2361 Cl      1  UNL1       -0.0814
     19 C         140.0289  140.7305  168.3754 C.ar    1  UNL1        0.0725
     20 CL        139.4605  139.6102  167.5557 Cl      1  UNL1       -0.0812
     21 C         140.8742  144.3801  158.1960 C.ar    1  UNL1        0.1419
     22 C         139.9514  143.6062  157.3019 C.ar    1  UNL1        0.0576
     23 C         138.7829  142.8699  157.8871 C.ar    1  UNL1        0.1021
     24 N         138.5373  142.9076  159.3664 N.ar    1  UNL1       -0.2405
     25 C         139.4601  143.6816  160.2605 C.ar    1  UNL1        0.1201
     26 C         140.6286  144.4178  159.6753 C.ar    1  UNL1        0.0591
     27 C         142.1112  145.3607  156.1324 C.3     1  UNL1        0.2525
     28 O         142.0427  145.1164  157.6108 O.3     1  UNL1       -0.4713
@<TRIPOS>BOND
     1    27    28    1
     2    28    21    1
     3    21    22   ar
     4    22    23   ar
     5    23    24   ar
     6    24    25   ar
     7    25     1    1
     8     1     2   ar
     9     2     3   ar
    10     3     4   ar
    11     4     5   ar
    12     5     6    1
    13     6     7    1
    14     7     8    1
    15     7     9    1
    16     9    10   am
    17    10    11    2
    18    10    13    1
    19    13    14   ar
    20    14    15   ar
    21    15    16   ar
    22    16    17   ar
    23    17    18    1
    24    17    19   ar
    25    19    20    1
    26     9    12    1
    27    25    26   ar
    28    26    21   ar
    29     5     1   ar
    30    19    13   ar
    31    12     4    1
@<TRIPOS>MOLECULE
*****
 28 31 0 0 0
SMALL
GASTEIGER

@<TRIPOS>ATOM
      1 C         142.0987  141.1359  166.6437 C.ar    1  UNL1        0.1841
      2 N         143.0771  140.3482  165.8238 N.ar    1  UNL1       -0.1274
      3 N         142.8980  140.7390  164.3867 N.ar    1  UNL1       -0.1315
      4 C         141.8088  141.7682  164.3184 C.ar    1  UNL1        0.1636
      5 N         141.3149  142.0135  165.7134 N.ar    1  UNL1       -0.2944
      6 C         140.2152  143.0042  165.9562 C.3     1  UNL1        0.1285
      7 C         139.6094  143.7497  164.8041 C.3     1  UNL1        0.0987
      8 C         138.5097  144.7405  165.0469 C.3     1  UNL1        0.0236
      9 N         140.1034  143.5044  163.4092 N.am    1  UNL1       -0.2687
     10 C         139.4976  144.2499  162.2571 C.2     1  UNL1        0.2502
     11 O         138.3979  145.2406  162.4999 O.2     1  UNL1       -0.2699
     12 C         141.2031  142.5136  163.1664 C.3     1  UNL1        0.1598
     13 C         139.9916  144.0046  160.8621 C.ar    1  UNL1        0.0650
     14 C         141.1015  144.8433  160.3012 C.ar    1  UNL1        0.0054
     15 C         141.5954  144.5980  158.9063 C.ar    1  UNL1        0.0011
     16 C         140.9795  143.5139  158.0723 C.ar    1  UNL1        0.0123
     17 C         139.8697  142.6752  158.6333 C.ar    1  UNL1        0.0683
     18 CL        139.2537  141.5912  157.7993 Cl      1  UNL1       -0.0814
     19 C         139.3757  142.9206  160.0282 C.ar    1  UNL1        0.0725
     20 CL        138.2658  142.0818  160.5891 Cl      1  UNL1       -0.0812
     21 C         140.5682  140.3001  170.2087 C.ar    1  UNL1        0.1419
     22 C         141.6022  140.9066  171.1104 C.ar    1  UNL1        0.0576
     23 C         142.8016  141.5896  170.5232 C.ar    1  UNL1        0.1021
     24 N         142.9671  141.6660  169.0343 N.ar    1  UNL1       -0.2405
     25 C         141.9332  141.0595  168.1326 C.ar    1  UNL1        0.1201
     26 C         140.7337  140.3765  168.7197 C.ar    1  UNL1        0.0591
     27 C         137.9952  139.9507  170.2939 C.3     1  UNL1        0.2525
     28 O         139.3688  139.6171  170.7959 O.3     1  UNL1       -0.4713
@<TRIPOS>BOND
     1    27    28    1
     2    28    21    1
     3    21    22   ar
     4    22    23   ar
     5    23    24   ar
     6    24    25   ar
     7    25     1    1
     8     1     2   ar
     9     2     3   ar
    10     3     4   ar
    11     4     5   ar
    12     5     6    1
    13     6     7    1
    14     7     8    1
    15     7     9    1
    16     9    10   am
    17    10    11    2
    18    10    13    1
    19    13    14   ar
    20    14    15   ar
    21    15    16   ar
    22    16    17   ar
    23    17    18    1
    24    17    19   ar
    25    19    20    1
    26     9    12    1
    27    25    26   ar
    28    26    21   ar
    29     5     1   ar
    30    19    13   ar
    31    12     4    1
@<TRIPOS>MOLECULE
*****
 28 31 0 0 0
SMALL
GASTEIGER

@<TRIPOS>ATOM
      1 C         142.7189  138.3483  159.9371 C.ar    1  UNL1        0.1841
      2 N         143.6532  137.7627  160.9540 N.ar    1  UNL1       -0.1274
      3 N         143.0802  138.0251  162.3152 N.ar    1  UNL1       -0.1315
      4 C         141.7917  138.7728  162.1395 C.ar    1  UNL1        0.1636
      5 N         141.5684  138.9725  160.6697 N.ar    1  UNL1       -0.2944
      6 C         140.3464  139.6970  160.1884 C.3     1  UNL1        0.1285
      7 C         139.3476  140.2218  161.1769 C.3     1  UNL1        0.0987
      8 C         138.1256  140.9463  160.6956 C.3     1  UNL1        0.0236
      9 N         139.5709  140.0221  162.6467 N.am    1  UNL1       -0.2687
     10 C         138.5721  140.5468  163.6352 C.2     1  UNL1        0.2502
     11 O         137.3501  141.2713  163.1539 O.2     1  UNL1       -0.2699
     12 C         140.7930  139.2975  163.1280 C.3     1  UNL1        0.1598
     13 C         138.7954  140.3471  165.1049 C.ar    1  UNL1        0.0650
     14 C         138.1409  139.1985  165.8137 C.ar    1  UNL1        0.0054
     15 C         138.3642  138.9988  167.2835 C.ar    1  UNL1        0.0011
     16 C         139.2420  139.9476  168.0445 C.ar    1  UNL1        0.0123
     17 C         139.8965  141.0961  167.3357 C.ar    1  UNL1        0.0683
     18 CL        140.7744  142.0450  168.0967 Cl      1  UNL1       -0.0814
     19 C         139.6732  141.2959  165.8659 C.ar    1  UNL1        0.0725
     20 CL        140.3278  142.4445  165.1572 Cl      1  UNL1       -0.0812
     21 C         142.5313  137.1411  156.1611 C.ar    1  UNL1        0.1419
     22 C         143.2704  138.2496  155.4721 C.ar    1  UNL1        0.0576
     23 C         143.8257  139.3911  156.2713 C.ar    1  UNL1        0.1021
     24 N         143.6418  139.4239  157.7597 N.ar    1  UNL1       -0.2405
     25 C         142.9027  138.3154  158.4488 C.ar    1  UNL1        0.1201
     26 C         142.3475  137.1739  157.6495 C.ar    1  UNL1        0.0591
     27 C         142.9049  135.0176  154.7116 C.3     1  UNL1        0.2525
     28 O         141.9761  135.9997  155.3619 O.3     1  UNL1       -0.4713
@<TRIPOS>BOND
     1    27    28    1
     2    28    21    1
     3    21    22   ar
     4    22    23   ar
     5    23    24   ar
     6    24    25   ar
     7    25     1    1
     8     1     2   ar
     9     2     3   ar
    10     3     4   ar
    11     4     5   ar
    12     5     6    1
    13     6     7    1
    14     7     8    1
    15     7     9    1
    16     9    10   am
    17    10    11    2
    18    10    13    1
    19    13    14   ar
    20    14    15   ar
    21    15    16   ar
    22    16    17   ar
    23    17    18    1
    24    17    19   ar
    25    19    20    1
    26     9    12    1
    27    25    26   ar
    28    26    21   ar
    29     5     1   ar
    30    19    13   ar
    31    12     4    1
@<TRIPOS>MOLECULE
*****
 28 31 0 0 0
SMALL
GASTEIGER

@<TRIPOS>ATOM
      1 C         139.0663  139.2581  161.4927 C.ar    1  UNL1        0.1841
      2 N         138.0682  138.4740  162.2920 N.ar    1  UNL1       -0.1274
      3 N         138.4366  138.5953  163.7410 N.ar    1  UNL1       -0.1315
      4 C         139.6625  139.4545  163.8372 C.ar    1  UNL1        0.1636
      5 N         140.0516  139.8641  162.4477 N.ar    1  UNL1       -0.2944
      6 C         141.2529  140.7360  162.2315 C.3     1  UNL1        0.1285
      7 C         142.0651  141.1983  163.4049 C.3     1  UNL1        0.0987
      8 C         143.2663  142.0701  163.1887 C.3     1  UNL1        0.0236
      9 N         141.6759  140.7886  164.7944 N.am    1  UNL1       -0.2687
     10 C         142.4880  141.2509  165.9677 C.2     1  UNL1        0.2502
     11 O         143.6893  142.1227  165.7515 O.2     1  UNL1       -0.2699
     12 C         140.4746  139.9167  165.0105 C.3     1  UNL1        0.1598
     13 C         142.0989  140.8412  167.3573 C.ar    1  UNL1        0.0650
     14 C         142.7265  139.6329  167.9864 C.ar    1  UNL1        0.0054
     15 C         142.3373  139.2232  169.3760 C.ar    1  UNL1        0.0011
     16 C         141.3206  140.0220  170.1363 C.ar    1  UNL1        0.0123
     17 C         140.6930  141.2303  169.5071 C.ar    1  UNL1        0.0683
     18 CL        139.6761  142.0292  170.2675 Cl      1  UNL1       -0.0814
     19 C         141.0821  141.6400  168.1176 C.ar    1  UNL1        0.0725
     20 CL        140.4544  142.8484  167.4884 Cl      1  UNL1       -0.0812
     21 C         138.2100  140.5849  157.8518 C.ar    1  UNL1        0.1419
     22 C         139.0991  139.7128  157.0158 C.ar    1  UNL1        0.0576
     23 C         139.9773  138.6891  157.6722 C.ar    1  UNL1        0.1021
     24 N         139.9663  138.5375  159.1645 N.ar    1  UNL1       -0.2405
     25 C         139.0772  139.4097  160.0005 C.ar    1  UNL1        0.1201
     26 C         138.1990  140.4334  159.3441 C.ar    1  UNL1        0.0591
     27 C         136.2151  141.1718  156.2941 C.3     1  UNL1        0.2525
     28 O         137.3318  141.6086  157.1955 O.3     1  UNL1       -0.4713
@<TRIPOS>BOND
     1    27    28    1
     2    28    21    1
     3    21    22   ar
     4    22    23   ar
     5    23    24   ar
     6    24    25   ar
     7    25     1    1
     8     1     2   ar
     9     2     3   ar
    10     3     4   ar
    11     4     5   ar
    12     5     6    1
    13     6     7    1
    14     7     8    1
    15     7     9    1
    16     9    10   am
    17    10    11    2
    18    10    13    1
    19    13    14   ar
    20    14    15   ar
    21    15    16   ar
    22    16    17   ar
    23    17    18    1
    24    17    19   ar
    25    19    20    1
    26     9    12    1
    27    25    26   ar
    28    26    21   ar
    29     5     1   ar
    30    19    13   ar
    31    12     4    1
@<TRIPOS>MOLECULE
*****
 28 31 0 0 0
SMALL
GASTEIGER

@<TRIPOS>ATOM
      1 C         140.3318  144.6377  160.8584 C.ar    1  UNL1        0.1841
      2 N         139.4177  145.4867  161.6912 N.ar    1  UNL1       -0.1274
      3 N         139.4032  144.9254  163.0822 N.ar    1  UNL1       -0.1315
      4 C         140.3082  143.7295  163.1090 C.ar    1  UNL1        0.1636
      5 N         140.8822  143.5517  161.7346 N.ar    1  UNL1       -0.2944
      6 C         141.8318  142.4239  161.4585 C.3     1  UNL1        0.1285
      7 C         142.2075  141.4738  162.5569 C.3     1  UNL1        0.0987
      8 C         143.1571  140.3460  162.2808 C.3     1  UNL1        0.0236
      9 N         141.6335  141.6517  163.9313 N.am    1  UNL1       -0.2687
     10 C         142.0092  140.7017  165.0296 C.2     1  UNL1        0.2502
     11 O         142.9588  139.5739  164.7536 O.2     1  UNL1       -0.2699
     12 C         140.6839  142.7796  164.2073 C.3     1  UNL1        0.1598
     13 C         141.4353  140.8796  166.4040 C.ar    1  UNL1        0.0650
     14 C         140.1961  140.1338  166.8016 C.ar    1  UNL1        0.0054
     15 C         139.6221  140.3117  168.1760 C.ar    1  UNL1        0.0011
     16 C         140.2874  141.2353  169.1528 C.ar    1  UNL1        0.0123
     17 C         141.5267  141.9811  168.7553 C.ar    1  UNL1        0.0683
     18 CL        142.1920  142.9047  169.7321 Cl      1  UNL1       -0.0814
     19 C         142.1006  141.8032  167.3809 C.ar    1  UNL1        0.0725
     20 CL        143.3399  142.5490  166.9833 Cl      1  UNL1       -0.0812
     21 C         140.0649  144.4327  156.9040 C.ar    1  UNL1        0.1419
     22 C         141.2601  145.2423  156.4968 C.ar    1  UNL1        0.0576
     23 C         142.1459  145.8505  157.5435 C.ar    1  UNL1        0.1021
     24 N         141.8364  145.6489  158.9973 N.ar    1  UNL1       -0.2405
     25 C         140.6412  144.8392  159.4045 C.ar    1  UNL1        0.1201
     26 C         139.7554  144.2311  158.3579 C.ar    1  UNL1        0.0591
     27 C         139.5427  142.5064  155.2407 C.3     1  UNL1        0.2525
     28 O         139.1791  143.8245  155.8574 O.3     1  UNL1       -0.4713
@<TRIPOS>BOND
     1    27    28    1
     2    28    21    1
     3    21    22   ar
     4    22    23   ar
     5    23    24   ar
     6    24    25   ar
     7    25     1    1
     8     1     2   ar
     9     2     3   ar
    10     3     4   ar
    11     4     5   ar
    12     5     6    1
    13     6     7    1
    14     7     8    1
    15     7     9    1
    16     9    10   am
    17    10    11    2
    18    10    13    1
    19    13    14   ar
    20    14    15   ar
    21    15    16   ar
    22    16    17   ar
    23    17    18    1
    24    17    19   ar
    25    19    20    1
    26     9    12    1
    27    25    26   ar
    28    26    21   ar
    29     5     1   ar
    30    19    13   ar
    31    12     4    1
