@<TRIPOS>MOLECULE
*****
 36 39 0 0 0
SMALL
GASTEIGER

@<TRIPOS>ATOM
      1 O         138.5248  139.2305  159.2512 O.2     1  UNL1       -0.2733
      2 C         139.8570  138.7106  158.7983 C.2     1  UNL1        0.2426
      3 N         140.9300  138.4190  159.8050 N.am    1  UNL1       -0.3018
      4 H         141.8043  138.0778  159.5077 H       1  UNL1        0.1495
      5 C         140.6709  138.6474  161.2648 C.3     1  UNL1        0.1035
      6 C         140.5769  139.8553  162.1490 C.3     1  UNL1        0.0933
      7 N         140.3045  138.9703  163.3291 N.3     1  UNL1       -0.2711
      8 C         140.3984  137.7623  162.4448 C.3     1  UNL1        0.0933
      9 C         140.0454  139.1987  164.7888 C.3     1  UNL1        0.0578
     10 C         138.6979  138.8865  165.3692 C.3     1  UNL1        0.0187
     11 C         138.4389  139.1149  166.8289 C.3     1  UNL1        0.0331
     12 C         139.5273  139.6554  167.7082 C.3     1  UNL1        0.1140
     13 O         138.4249  139.5139  168.7154 O.3     1  UNL1       -0.3821
     14 C         140.8747  139.9676  167.1278 C.3     1  UNL1        0.0331
     15 C         141.1338  139.7393  165.6681 C.3     1  UNL1        0.0187
     16 H         137.6319  139.1639  168.2799 H       1  UNL1        0.2107
     17 C         140.2328  140.1469  168.9373 C.ar    1  UNL1        0.0518
     18 C         141.5888  139.7121  169.4088 C.ar    1  UNL1        0.1039
     19 N         141.9003  140.4559  170.6736 N.ar    1  UNL1       -0.2350
     20 C         140.7368  141.3503  170.9838 C.ar    1  UNL1        0.1343
     21 S         139.7062  141.1594  169.9107 S.2     1  UNL1       -0.0665
     22 C         140.1161  138.4823  157.3386 C.3     1  UNL1        0.1759
     23 N         140.5654  137.1340  156.8585 N.am    1  UNL1       -0.2931
     24 C         142.0181  136.7644  156.9127 C.2     1  UNL1        0.2462
     25 O         143.0215  137.7429  157.4470 O.2     1  UNL1       -0.2701
     26 H         139.9068  136.4917  156.5079 H       1  UNL1        0.1502
     27 C         142.4674  135.4161  156.4326 C.ar    1  UNL1        0.0533
     28 C         141.9069  134.8470  155.1630 C.ar    1  UNL1        0.0045
     29 C         142.3562  133.4988  154.6830 C.ar    1  UNL1        0.0001
     30 C         143.3659  132.7197  155.4726 C.ar    1  UNL1        0.0039
     31 C         143.9264  133.2888  156.7422 C.ar    1  UNL1        0.0716
     32 C         143.4771  134.6370  157.2222 C.ar    1  UNL1        0.0084
     33 C         144.9361  132.5097  157.5318 C.3     1  UNL1        0.4186
     34 F         145.9458  131.7306  158.3214 F       1  UNL1       -0.1659
     35 F         144.7350  133.4313  158.6981 F       1  UNL1       -0.1659
     36 F         145.1372  131.5882  156.3654 F       1  UNL1       -0.1659
@<TRIPOS>BOND
     1     1     2    2
     2     2    22    1
     3    22    23    1
     4    23    24   am
     5    24    25    2
     6    24    27    1
     7    27    28   ar
     8    28    29   ar
     9    29    30   ar
    10    30    31   ar
    11    31    33    1
    12    33    34    1
    13    33    35    1
    14    33    36    1
    15    31    32   ar
    16     2     3   am
    17     3     5    1
    18     5     6    1
    19     6     7    1
    20     9     7    1
    21     9    10    1
    22    10    11    1
    23    11    12    1
    24    12    13    1
    25    12    17    1
    26    17    18   ar
    27    18    19   ar
    28    19    20   ar
    29    20    21   ar
    30    12    14    1
    31    14    15    1
    32     7     8    1
    33    32    27   ar
    34     8     5    1
    35    15     9    1
    36    21    17   ar
    37    23    26    1
    38     3     4    1
    39    13    16    1
@<TRIPOS>MOLECULE
*****
 36 39 0 0 0
SMALL
GASTEIGER

@<TRIPOS>ATOM
      1 O         141.6685  139.8163  159.5560 O.2     1  UNL1       -0.2733
      2 C         142.9222  139.1213  159.1142 C.2     1  UNL1        0.2426
      3 N         143.9634  138.7388  160.1239 N.am    1  UNL1       -0.3018
      4 H         144.7862  138.2826  159.8339 H       1  UNL1        0.1495
      5 C         143.7509  139.0513  161.5756 C.3     1  UNL1        0.1035
      6 C         144.3907  139.9790  162.5655 C.3     1  UNL1        0.0933
      7 N         143.4504  139.4932  163.6285 N.3     1  UNL1       -0.2711
      8 C         142.8106  138.5655  162.6386 C.3     1  UNL1        0.0933
      9 C         143.2379  139.8057  165.0801 C.3     1  UNL1        0.0578
     10 C         143.2833  138.7054  166.0986 C.3     1  UNL1        0.0187
     11 C         143.0708  139.0180  167.5503 C.3     1  UNL1        0.0331
     12 C         142.8130  140.4307  167.9833 C.3     1  UNL1        0.1140
     13 O         142.7627  139.7375  169.3125 O.3     1  UNL1       -0.3821
     14 C         142.7676  141.5310  166.9648 C.3     1  UNL1        0.0331
     15 C         142.9801  141.2185  165.5132 C.3     1  UNL1        0.0187
     16 H         142.9169  138.7880  169.1880 H       1  UNL1        0.2107
     17 C         142.5377  141.6028  168.8781 C.ar    1  UNL1        0.0518
     18 C         143.5146  142.2414  169.8204 C.ar    1  UNL1        0.1039
     19 N         142.8178  143.3753  170.5122 N.ar    1  UNL1       -0.2350
     20 C         141.4103  143.4375  169.9975 C.ar    1  UNL1        0.1343
     21 S         141.2371  142.3421  168.9876 S.2     1  UNL1       -0.0665
     22 C         143.1348  138.8088  157.6626 C.3     1  UNL1        0.1759
     23 N         142.6989  137.4847  157.1088 N.am    1  UNL1       -0.2931
     24 C         143.5524  136.7764  156.0989 C.2     1  UNL1        0.2462
     25 O         144.8419  137.3923  155.6429 O.2     1  UNL1       -0.2701
     26 H         141.8525  137.0805  157.4081 H       1  UNL1        0.1502
     27 C         143.1165  135.4523  155.5451 C.ar    1  UNL1        0.0533
     28 C         142.5829  135.3634  154.1461 C.ar    1  UNL1        0.0045
     29 C         142.1470  134.0393  153.5924 C.ar    1  UNL1        0.0001
     30 C         142.2447  132.8040  154.4376 C.ar    1  UNL1        0.0039
     31 C         142.7783  132.8929  155.8367 C.ar    1  UNL1        0.0716
     32 C         143.2142  134.2170  156.3904 C.ar    1  UNL1        0.0084
     33 C         142.8760  131.6576  156.6819 C.3     1  UNL1        0.4186
     34 F         142.9737  130.4223  157.5272 F       1  UNL1       -0.1659
     35 F         141.8912  130.9666  155.7860 F       1  UNL1       -0.1659
     36 F         143.8608  132.3486  157.5779 F       1  UNL1       -0.1659
@<TRIPOS>BOND
     1     1     2    2
     2     2    22    1
     3    22    23    1
     4    23    24   am
     5    24    25    2
     6    24    27    1
     7    27    28   ar
     8    28    29   ar
     9    29    30   ar
    10    30    31   ar
    11    31    33    1
    12    33    34    1
    13    33    35    1
    14    33    36    1
    15    31    32   ar
    16     2     3   am
    17     3     5    1
    18     5     6    1
    19     6     7    1
    20     9     7    1
    21     9    10    1
    22    10    11    1
    23    11    12    1
    24    12    13    1
    25    12    17    1
    26    17    18   ar
    27    18    19   ar
    28    19    20   ar
    29    20    21   ar
    30    12    14    1
    31    14    15    1
    32     7     8    1
    33    32    27   ar
    34     8     5    1
    35    15     9    1
    36    21    17   ar
    37    23    26    1
    38     3     4    1
    39    13    16    1
@<TRIPOS>MOLECULE
*****
 36 39 0 0 0
SMALL
GASTEIGER

@<TRIPOS>ATOM
      1 O         143.9672  138.7800  159.8100 O.2     1  UNL1       -0.2733
      2 C         142.6589  138.3583  159.2096 C.2     1  UNL1        0.2426
      3 N         141.4429  138.2270  160.0780 N.am    1  UNL1       -0.3018
      4 H         140.5842  137.9502  159.6839 H       1  UNL1        0.1495
      5 C         141.5352  138.5174  161.5468 C.3     1  UNL1        0.1035
      6 C         141.3452  137.7158  162.8004 C.3     1  UNL1        0.0933
      7 N         141.6656  138.9279  163.6239 N.3     1  UNL1       -0.2711
      8 C         141.8556  139.7294  162.3703 C.3     1  UNL1        0.0933
      9 C         141.7579  139.2182  165.0926 C.3     1  UNL1        0.0578
     10 C         142.9498  138.7531  165.8756 C.3     1  UNL1        0.0187
     11 C         143.0420  139.0435  167.3444 C.3     1  UNL1        0.0331
     12 C         141.9424  139.7989  168.0301 C.3     1  UNL1        0.1140
     13 O         142.8635  139.5684  169.1913 O.3     1  UNL1       -0.3821
     14 C         140.7506  140.2640  167.2470 C.3     1  UNL1        0.0331
     15 C         140.6583  139.9737  165.7783 C.3     1  UNL1        0.0187
     16 H         143.6437  139.0758  168.8922 H       1  UNL1        0.2107
     17 C         141.1627  140.4743  169.1190 C.ar    1  UNL1        0.0518
     18 C         140.7712  139.8636  170.4320 C.ar    1  UNL1        0.1039
     19 N         140.0041  140.8909  171.2106 N.ar    1  UNL1       -0.2350
     20 C         139.9215  142.1364  170.3789 C.ar    1  UNL1        0.1343
     21 S         140.6375  141.8790  169.0862 S.2     1  UNL1       -0.0665
     22 C         142.5665  138.0679  157.7409 C.3     1  UNL1        0.1759
     23 N         142.9675  136.7211  157.2160 N.am    1  UNL1       -0.2931
     24 C         142.0322  135.9525  156.3304 C.2     1  UNL1        0.2462
     25 O         140.6959  136.5304  155.9698 O.2     1  UNL1       -0.2701
     26 H         143.8446  136.3418  157.4527 H       1  UNL1        0.1502
     27 C         142.4333  134.6057  155.8055 C.ar    1  UNL1        0.0533
     28 C         142.0902  134.2168  154.3980 C.ar    1  UNL1        0.0045
     29 C         142.4912  132.8701  153.8732 C.ar    1  UNL1        0.0001
     30 C         143.2353  131.9123  154.7558 C.ar    1  UNL1        0.0039
     31 C         143.5783  132.3012  156.1632 C.ar    1  UNL1        0.0716
     32 C         143.1773  133.6479  156.6881 C.ar    1  UNL1        0.0084
     33 C         144.3224  131.3434  157.0458 C.3     1  UNL1        0.4186
     34 F         145.0664  130.3856  157.9285 F       1  UNL1       -0.1659
     35 F         143.0215  130.7466  157.4949 F       1  UNL1       -0.1659
     36 F         145.6232  131.9401  156.5968 F       1  UNL1       -0.1659
@<TRIPOS>BOND
     1     1     2    2
     2     2    22    1
     3    22    23    1
     4    23    24   am
     5    24    25    2
     6    24    27    1
     7    27    28   ar
     8    28    29   ar
     9    29    30   ar
    10    30    31   ar
    11    31    33    1
    12    33    34    1
    13    33    35    1
    14    33    36    1
    15    31    32   ar
    16     2     3   am
    17     3     5    1
    18     5     6    1
    19     6     7    1
    20     9     7    1
    21     9    10    1
    22    10    11    1
    23    11    12    1
    24    12    13    1
    25    12    17    1
    26    17    18   ar
    27    18    19   ar
    28    19    20   ar
    29    20    21   ar
    30    12    14    1
    31    14    15    1
    32     7     8    1
    33    32    27   ar
    34     8     5    1
    35    15     9    1
    36    21    17   ar
    37    23    26    1
    38     3     4    1
    39    13    16    1
@<TRIPOS>MOLECULE
*****
 36 39 0 0 0
SMALL
GASTEIGER

@<TRIPOS>ATOM
      1 O         140.7150  140.6630  159.9572 O.2     1  UNL1       -0.2733
      2 C         139.8127  139.6105  159.3843 C.2     1  UNL1        0.2426
      3 N         138.9612  138.7762  160.2947 N.am    1  UNL1       -0.3018
      4 H         138.3690  138.0854  159.9187 H       1  UNL1        0.1495
      5 C         139.0119  138.9943  161.7779 C.3     1  UNL1        0.1035
      6 C         139.9073  138.5302  162.8882 C.3     1  UNL1        0.0933
      7 N         139.0836  139.3028  163.8754 N.3     1  UNL1       -0.2711
      8 C         138.1882  139.7669  162.7651 C.3     1  UNL1        0.0933
      9 C         139.1344  139.5209  165.3586 C.3     1  UNL1        0.0578
     10 C         138.0518  138.9655  166.2358 C.3     1  UNL1        0.0187
     11 C         138.1026  139.1837  167.7191 C.3     1  UNL1        0.0331
     12 C         139.2359  139.9572  168.3250 C.3     1  UNL1        0.1140
     13 O         138.4524  139.6311  169.5618 O.3     1  UNL1       -0.3821
     14 C         140.3185  140.5125  167.4478 C.3     1  UNL1        0.0331
     15 C         140.2678  140.2944  165.9646 C.3     1  UNL1        0.0187
     16 H         137.6661  139.1170  169.3203 H       1  UNL1        0.2107
     17 C         140.0972  140.6174  169.3605 C.ar    1  UNL1        0.0518
     18 C         139.8341  141.9430  170.0114 C.ar    1  UNL1        0.1039
     19 N         140.9472  142.2128  170.9800 N.ar    1  UNL1       -0.2350
     20 C         141.8981  141.0540  170.9278 C.ar    1  UNL1        0.1343
     21 S         141.3729  140.0680  169.9269 S.2     1  UNL1       -0.0665
     22 C         139.7620  139.3923  157.9012 C.3     1  UNL1        0.1759
     23 N         138.4578  139.5117  157.1697 N.am    1  UNL1       -0.2931
     24 C         138.0811  140.8074  156.5147 C.2     1  UNL1        0.2462
     25 O         139.0086  141.9839  156.5911 O.2     1  UNL1       -0.2701
     26 H         137.8491  138.7395  157.1195 H       1  UNL1        0.1502
     27 C         136.7770  140.9268  155.7832 C.ar    1  UNL1        0.0533
     28 C         136.7569  141.3885  154.3562 C.ar    1  UNL1        0.0045
     29 C         135.4528  141.5078  153.6248 C.ar    1  UNL1        0.0001
     30 C         134.1687  141.1654  154.3204 C.ar    1  UNL1        0.0039
     31 C         134.1887  140.7037  155.7474 C.ar    1  UNL1        0.0716
     32 C         135.4929  140.5844  156.4788 C.ar    1  UNL1        0.0084
     33 C         132.9046  140.3613  156.4429 C.3     1  UNL1        0.4186
     34 F         131.6205  140.0189  157.1385 F       1  UNL1       -0.1659
     35 F         133.5281  139.1053  156.9757 F       1  UNL1       -0.1659
     36 F         132.2812  141.6172  155.9102 F       1  UNL1       -0.1659
@<TRIPOS>BOND
     1     1     2    2
     2     2    22    1
     3    22    23    1
     4    23    24   am
     5    24    25    2
     6    24    27    1
     7    27    28   ar
     8    28    29   ar
     9    29    30   ar
    10    30    31   ar
    11    31    33    1
    12    33    34    1
    13    33    35    1
    14    33    36    1
    15    31    32   ar
    16     2     3   am
    17     3     5    1
    18     5     6    1
    19     6     7    1
    20     9     7    1
    21     9    10    1
    22    10    11    1
    23    11    12    1
    24    12    13    1
    25    12    17    1
    26    17    18   ar
    27    18    19   ar
    28    19    20   ar
    29    20    21   ar
    30    12    14    1
    31    14    15    1
    32     7     8    1
    33    32    27   ar
    34     8     5    1
    35    15     9    1
    36    21    17   ar
    37    23    26    1
    38     3     4    1
    39    13    16    1
@<TRIPOS>MOLECULE
*****
 36 39 0 0 0
SMALL
GASTEIGER

@<TRIPOS>ATOM
      1 O         144.0464  139.6281  159.2475 O.2     1  UNL1       -0.2733
      2 C         143.6309  140.4763  158.0823 C.2     1  UNL1        0.2426
      3 N         143.1288  139.8300  156.8253 N.am    1  UNL1       -0.3018
      4 H         142.8561  140.3867  156.0605 H       1  UNL1        0.1495
      5 C         143.0423  138.3352  156.7335 C.3     1  UNL1        0.1035
      6 C         143.7043  137.2841  155.8927 C.3     1  UNL1        0.0933
      7 N         142.9199  136.2214  156.6036 N.3     1  UNL1       -0.2711
      8 C         142.2579  137.2725  157.4444 C.3     1  UNL1        0.0933
      9 C         142.8334  134.7268  156.5118 C.3     1  UNL1        0.0578
     10 C         141.8125  134.0881  155.6174 C.3     1  UNL1        0.0187
     11 C         141.7260  132.5934  155.5256 C.3     1  UNL1        0.0331
     12 C         142.6604  131.7374  156.3281 C.3     1  UNL1        0.1140
     13 O         141.8685  130.6731  155.6280 O.3     1  UNL1       -0.3821
     14 C         143.6813  132.3760  157.2225 C.3     1  UNL1        0.0331
     15 C         143.7678  133.8707  157.3144 C.3     1  UNL1        0.0187
     16 H         141.2045  131.0881  155.0555 H       1  UNL1        0.2107
     17 C         143.3198  130.5117  156.8876 C.ar    1  UNL1        0.0518
     18 C         144.3906  130.4880  157.9377 C.ar    1  UNL1        0.1039
     19 N         144.7567  129.0562  158.1942 N.ar    1  UNL1       -0.2350
     20 C         143.9121  128.1950  157.3026 C.ar    1  UNL1        0.1343
     21 S         143.0240  129.0945  156.4951 S.2     1  UNL1       -0.0665
     22 C         143.7174  141.9710  158.1740 C.3     1  UNL1        0.1759
     23 N         143.0143  142.6963  159.2829 N.am    1  UNL1       -0.2931
     24 C         143.7402  142.9981  160.5604 C.2     1  UNL1        0.2462
     25 O         145.1692  142.5746  160.7290 O.2     1  UNL1       -0.2701
     26 H         142.0763  142.9743  159.1722 H       1  UNL1        0.1502
     27 C         143.0370  143.7235  161.6693 C.ar    1  UNL1        0.0533
     28 C         143.8311  144.3580  162.7722 C.ar    1  UNL1        0.0045
     29 C         143.1280  145.0833  163.8811 C.ar    1  UNL1        0.0001
     30 C         141.6308  145.1740  163.8869 C.ar    1  UNL1        0.0039
     31 C         140.8367  144.5395  162.7839 C.ar    1  UNL1        0.0716
     32 C         141.5398  143.8142  161.6751 C.ar    1  UNL1        0.0084
     33 C         139.3394  144.6302  162.7897 C.3     1  UNL1        0.4186
     34 F         137.8422  144.7209  162.7955 F       1  UNL1       -0.1659
     35 F         139.2994  144.0584  161.4035 F       1  UNL1       -0.1659
     36 F         139.3794  145.2019  164.1759 F       1  UNL1       -0.1659
@<TRIPOS>BOND
     1     1     2    2
     2     2    22    1
     3    22    23    1
     4    23    24   am
     5    24    25    2
     6    24    27    1
     7    27    28   ar
     8    28    29   ar
     9    29    30   ar
    10    30    31   ar
    11    31    33    1
    12    33    34    1
    13    33    35    1
    14    33    36    1
    15    31    32   ar
    16     2     3   am
    17     3     5    1
    18     5     6    1
    19     6     7    1
    20     9     7    1
    21     9    10    1
    22    10    11    1
    23    11    12    1
    24    12    13    1
    25    12    17    1
    26    17    18   ar
    27    18    19   ar
    28    19    20   ar
    29    20    21   ar
    30    12    14    1
    31    14    15    1
    32     7     8    1
    33    32    27   ar
    34     8     5    1
    35    15     9    1
    36    21    17   ar
    37    23    26    1
    38     3     4    1
    39    13    16    1
@<TRIPOS>MOLECULE
*****
 36 39 0 0 0
SMALL
GASTEIGER

@<TRIPOS>ATOM
      1 O         140.7773  138.1105  160.5875 O.2     1  UNL1       -0.2733
      2 C         140.8247  139.2486  159.6116 C.2     1  UNL1        0.2426
      3 N         141.1080  140.6400  160.0952 N.am    1  UNL1       -0.3018
      4 H         141.1391  141.3869  159.4546 H       1  UNL1        0.1495
      5 C         141.3437  140.8933  161.5548 C.3     1  UNL1        0.1035
      6 C         140.9187  141.9508  162.5299 C.3     1  UNL1        0.0933
      7 N         141.6771  141.2515  163.6189 N.3     1  UNL1       -0.2711
      8 C         142.1022  140.1940  162.6437 C.3     1  UNL1        0.0933
      9 C         141.9129  141.5048  165.0784 C.3     1  UNL1        0.0578
     10 C         143.1557  142.2161  165.5250 C.3     1  UNL1        0.0187
     11 C         143.3914  142.4694  166.9846 C.3     1  UNL1        0.0331
     12 C         142.3843  142.0115  167.9975 C.3     1  UNL1        0.1140
     13 O         143.3999  142.6394  168.9053 O.3     1  UNL1       -0.3821
     14 C         141.1415  141.3002  167.5509 C.3     1  UNL1        0.0331
     15 C         140.9057  141.0469  166.0914 C.3     1  UNL1        0.0187
     16 H         144.1331  142.9907  168.3763 H       1  UNL1        0.2107
     17 C         141.7299  141.7716  169.3257 C.ar    1  UNL1        0.0518
     18 C         141.3196  142.8267  170.3099 C.ar    1  UNL1        0.1039
     19 N         140.7070  142.1417  171.4954 N.ar    1  UNL1       -0.2350
     20 C         140.7386  140.6633  171.2439 C.ar    1  UNL1        0.1343
     21 S         141.3708  140.4345  169.9030 S.2     1  UNL1       -0.0665
     22 C         140.5890  138.9954  158.1521 C.3     1  UNL1        0.1759
     23 N         140.9130  137.6551  157.5614 N.am    1  UNL1       -0.2931
     24 C         142.3126  137.3502  157.1164 C.2     1  UNL1        0.2462
     25 O         143.3882  138.3855  157.2619 O.2     1  UNL1       -0.2701
     26 H         140.2071  136.9756  157.4659 H       1  UNL1        0.1502
     27 C         142.6367  136.0100  156.5258 C.ar    1  UNL1        0.0533
     28 C         142.0860  135.6289  155.1836 C.ar    1  UNL1        0.0045
     29 C         142.4101  134.2887  154.5930 C.ar    1  UNL1        0.0001
     30 C         143.2848  133.3296  155.3447 C.ar    1  UNL1        0.0039
     31 C         143.8354  133.7106  156.6868 C.ar    1  UNL1        0.0716
     32 C         143.5114  135.0508  157.2774 C.ar    1  UNL1        0.0084
     33 C         144.7101  132.7515  157.4385 C.3     1  UNL1        0.4186
     34 F         145.5848  131.7924  158.1901 F       1  UNL1       -0.1659
     35 F         144.8929  131.9400  156.1903 F       1  UNL1       -0.1659
     36 F         144.5273  133.5630  158.6867 F       1  UNL1       -0.1659
@<TRIPOS>BOND
     1     1     2    2
     2     2    22    1
     3    22    23    1
     4    23    24   am
     5    24    25    2
     6    24    27    1
     7    27    28   ar
     8    28    29   ar
     9    29    30   ar
    10    30    31   ar
    11    31    33    1
    12    33    34    1
    13    33    35    1
    14    33    36    1
    15    31    32   ar
    16     2     3   am
    17     3     5    1
    18     5     6    1
    19     6     7    1
    20     9     7    1
    21     9    10    1
    22    10    11    1
    23    11    12    1
    24    12    13    1
    25    12    17    1
    26    17    18   ar
    27    18    19   ar
    28    19    20   ar
    29    20    21   ar
    30    12    14    1
    31    14    15    1
    32     7     8    1
    33    32    27   ar
    34     8     5    1
    35    15     9    1
    36    21    17   ar
    37    23    26    1
    38     3     4    1
    39    13    16    1
@<TRIPOS>MOLECULE
*****
 36 39 0 0 0
SMALL
GASTEIGER

@<TRIPOS>ATOM
      1 O         142.5105  144.3521  160.6359 O.2     1  UNL1       -0.2733
      2 C         143.1122  143.2536  159.8105 C.2     1  UNL1        0.2426
      3 N         143.4328  141.9311  160.4413 N.am    1  UNL1       -0.3018
      4 H         143.8277  141.2101  159.8996 H       1  UNL1        0.1495
      5 C         143.1518  141.7069  161.8977 C.3     1  UNL1        0.1035
      6 C         143.8812  141.9979  163.1757 C.3     1  UNL1        0.0933
      7 N         142.7544  141.3900  163.9572 N.3     1  UNL1       -0.2711
      8 C         142.0250  141.0990  162.6792 C.3     1  UNL1        0.0933
      9 C         142.4734  141.1659  165.4135 C.3     1  UNL1        0.0578
     10 C         142.9053  139.8897  166.0730 C.3     1  UNL1        0.0187
     11 C         142.6243  139.6657  167.5293 C.3     1  UNL1        0.0331
     12 C         141.9114  140.7177  168.3261 C.3     1  UNL1        0.1140
     13 O         142.1210  139.6820  169.3907 O.3     1  UNL1       -0.3821
     14 C         141.4795  141.9939  167.6666 C.3     1  UNL1        0.0331
     15 C         141.7605  142.2180  166.2104 C.3     1  UNL1        0.0187
     16 H         142.5850  138.9188  169.0124 H       1  UNL1        0.2107
     17 C         141.2713  141.4101  169.4927 C.ar    1  UNL1        0.0518
     18 C         141.5677  141.1546  170.9407 C.ar    1  UNL1        0.1039
     19 N         140.7020  142.0662  171.7590 N.ar    1  UNL1       -0.2350
     20 C         139.8705  142.8851  170.8166 C.ar    1  UNL1        0.1343
     21 S         140.2224  142.4796  169.4160 S.2     1  UNL1       -0.0665
     22 C         143.3933  143.4777  158.3542 C.3     1  UNL1        0.1759
     23 N         142.7604  144.6334  157.6374 N.am    1  UNL1       -0.2931
     24 C         141.5662  144.4076  156.7582 C.2     1  UNL1        0.2462
     25 O         141.0049  143.0261  156.5958 O.2     1  UNL1       -0.2701
     26 H         143.1288  145.5402  157.7440 H       1  UNL1        0.1502
     27 C         140.9333  145.5634  156.0414 C.ar    1  UNL1        0.0533
     28 C         141.1700  145.7554  154.5727 C.ar    1  UNL1        0.0045
     29 C         140.5371  146.9111  153.8559 C.ar    1  UNL1        0.0001
     30 C         139.6676  147.8747  154.6078 C.ar    1  UNL1        0.0039
     31 C         139.4309  147.6826  156.0765 C.ar    1  UNL1        0.0716
     32 C         140.0638  146.5270  156.7933 C.ar    1  UNL1        0.0084
     33 C         138.5613  148.6462  156.8284 C.3     1  UNL1        0.4186
     34 F         137.6918  149.6098  157.5803 F       1  UNL1       -0.1659
     35 F         138.8052  147.8788  158.0939 F       1  UNL1       -0.1659
     36 F         138.3174  149.4136  155.5628 F       1  UNL1       -0.1659
@<TRIPOS>BOND
     1     1     2    2
     2     2    22    1
     3    22    23    1
     4    23    24   am
     5    24    25    2
     6    24    27    1
     7    27    28   ar
     8    28    29   ar
     9    29    30   ar
    10    30    31   ar
    11    31    33    1
    12    33    34    1
    13    33    35    1
    14    33    36    1
    15    31    32   ar
    16     2     3   am
    17     3     5    1
    18     5     6    1
    19     6     7    1
    20     9     7    1
    21     9    10    1
    22    10    11    1
    23    11    12    1
    24    12    13    1
    25    12    17    1
    26    17    18   ar
    27    18    19   ar
    28    19    20   ar
    29    20    21   ar
    30    12    14    1
    31    14    15    1
    32     7     8    1
    33    32    27   ar
    34     8     5    1
    35    15     9    1
    36    21    17   ar
    37    23    26    1
    38     3     4    1
    39    13    16    1
@<TRIPOS>MOLECULE
*****
 36 39 0 0 0
SMALL
GASTEIGER

@<TRIPOS>ATOM
      1 O         144.1193  139.7369  159.2111 O.2     1  UNL1       -0.2733
      2 C         143.9340  140.5876  157.9897 C.2     1  UNL1        0.2426
      3 N         143.5614  139.9526  156.6828 N.am    1  UNL1       -0.3018
      4 H         143.4399  140.5109  155.8812 H       1  UNL1        0.1495
      5 C         143.3740  138.4667  156.5974 C.3     1  UNL1        0.1035
      6 C         142.5757  137.4527  157.3619 C.3     1  UNL1        0.0933
      7 N         143.1090  136.3655  156.4767 N.3     1  UNL1       -0.2711
      8 C         143.9073  137.3795  155.7122 C.3     1  UNL1        0.0933
      9 C         142.9215  134.8797  156.3914 C.3     1  UNL1        0.0578
     10 C         141.8052  134.3107  155.5668 C.3     1  UNL1        0.0187
     11 C         141.6178  132.8249  155.4814 C.3     1  UNL1        0.0331
     12 C         142.5467  131.9081  156.2207 C.3     1  UNL1        0.1140
     13 O         141.6442  130.8990  155.5750 O.3     1  UNL1       -0.3821
     14 C         143.6631  132.4771  157.0453 C.3     1  UNL1        0.0331
     15 C         143.8505  133.9628  157.1307 C.3     1  UNL1        0.0187
     16 H         140.9715  131.3576  155.0475 H       1  UNL1        0.2107
     17 C         143.1622  130.6408  156.7357 C.ar    1  UNL1        0.0518
     18 C         142.7486  129.2467  156.3678 C.ar    1  UNL1        0.1039
     19 N         143.6302  128.2895  157.1138 N.ar    1  UNL1       -0.2350
     20 C         144.5887  129.0921  157.9427 C.ar    1  UNL1        0.1343
     21 S         144.2995  130.5452  157.7091 S.2     1  UNL1       -0.0665
     22 C         144.1214  142.0734  158.0750 C.3     1  UNL1        0.1759
     23 N         143.9189  142.7810  159.3820 N.am    1  UNL1       -0.2931
     24 C         142.5339  143.1341  159.8371 C.2     1  UNL1        0.2462
     25 O         141.3513  142.7794  158.9851 O.2     1  UNL1       -0.2701
     26 H         144.6950  143.0138  159.9412 H       1  UNL1        0.1502
     27 C         142.3314  143.8417  161.1441 C.ar    1  UNL1        0.0533
     28 C         141.1510  144.7482  161.3312 C.ar    1  UNL1        0.0045
     29 C         140.9485  145.4558  162.6381 C.ar    1  UNL1        0.0001
     30 C         141.9264  145.2569  163.7581 C.ar    1  UNL1        0.0039
     31 C         143.1067  144.3505  163.5710 C.ar    1  UNL1        0.0716
     32 C         143.3092  143.6429  162.2640 C.ar    1  UNL1        0.0084
     33 C         144.0846  144.1516  164.6909 C.3     1  UNL1        0.4186
     34 F         145.0625  143.9527  165.8108 F       1  UNL1       -0.1659
     35 F         144.2670  145.6368  164.7954 F       1  UNL1       -0.1659
     36 F         143.9023  142.6664  164.5864 F       1  UNL1       -0.1659
@<TRIPOS>BOND
     1     1     2    2
     2     2    22    1
     3    22    23    1
     4    23    24   am
     5    24    25    2
     6    24    27    1
     7    27    28   ar
     8    28    29   ar
     9    29    30   ar
    10    30    31   ar
    11    31    33    1
    12    33    34    1
    13    33    35    1
    14    33    36    1
    15    31    32   ar
    16     2     3   am
    17     3     5    1
    18     5     6    1
    19     6     7    1
    20     9     7    1
    21     9    10    1
    22    10    11    1
    23    11    12    1
    24    12    13    1
    25    12    17    1
    26    17    18   ar
    27    18    19   ar
    28    19    20   ar
    29    20    21   ar
    30    12    14    1
    31    14    15    1
    32     7     8    1
    33    32    27   ar
    34     8     5    1
    35    15     9    1
    36    21    17   ar
    37    23    26    1
    38     3     4    1
    39    13    16    1
@<TRIPOS>MOLECULE
*****
 36 39 0 0 0
SMALL
GASTEIGER

@<TRIPOS>ATOM
      1 O         141.7930  139.0095  159.2695 O.2     1  UNL1       -0.2733
      2 C         142.5636  137.7244  159.2001 C.2     1  UNL1        0.2426
      3 N         143.1986  137.1629  160.4377 N.am    1  UNL1       -0.3018
      4 H         143.7043  136.3195  160.3922 H       1  UNL1        0.1495
      5 C         143.0630  137.8866  161.7446 C.3     1  UNL1        0.1035
      6 C         143.9408  138.8008  162.5468 C.3     1  UNL1        0.0933
      7 N         142.8713  138.9099  163.5929 N.3     1  UNL1       -0.2711
      8 C         141.9935  137.9956  162.7907 C.3     1  UNL1        0.0933
      9 C         142.7358  139.6335  164.8998 C.3     1  UNL1        0.0578
     10 C         143.2071  141.0521  165.0241 C.3     1  UNL1        0.0187
     11 C         143.0716  141.7756  166.3311 C.3     1  UNL1        0.0331
     12 C         142.4646  141.0807  167.5136 C.3     1  UNL1        0.1140
     13 O         142.7610  142.4193  168.1220 O.3     1  UNL1       -0.3821
     14 C         141.9932  139.6621  167.3894 C.3     1  UNL1        0.0331
     15 C         142.1288  138.9385  166.0825 C.3     1  UNL1        0.0187
     16 H         143.1687  142.9942  167.4556 H       1  UNL1        0.2107
     17 C         141.9606  140.8506  168.9076 C.ar    1  UNL1        0.0518
     18 C         142.7378  141.0641  170.1727 C.ar    1  UNL1        0.1039
     19 N         141.8483  140.7120  171.3281 N.ar    1  UNL1       -0.2350
     20 C         140.5215  140.2809  170.7770 C.ar    1  UNL1        0.1343
     21 S         140.5909  140.3666  169.2811 S.2     1  UNL1       -0.0665
     22 C         142.6993  137.0008  157.8933 C.3     1  UNL1        0.1759
     23 N         143.1885  135.5830  157.8682 N.am    1  UNL1       -0.2931
     24 C         143.4269  134.8949  156.5569 C.2     1  UNL1        0.2462
     25 O         143.1759  135.6245  155.2705 O.2     1  UNL1       -0.2701
     26 H         143.3532  135.1041  158.7125 H       1  UNL1        0.1502
     27 C         143.9161  133.4771  156.5318 C.ar    1  UNL1        0.0533
     28 C         144.5396  132.8771  157.7570 C.ar    1  UNL1        0.0045
     29 C         145.0288  131.4594  157.7319 C.ar    1  UNL1        0.0001
     30 C         144.8946  130.6417  156.4816 C.ar    1  UNL1        0.0039
     31 C         144.2712  131.2417  155.2563 C.ar    1  UNL1        0.0716
     32 C         143.7820  132.6594  155.2815 C.ar    1  UNL1        0.0084
     33 C         144.1370  130.4240  154.0060 C.3     1  UNL1        0.4186
     34 F         144.0029  129.6063  152.7556 F       1  UNL1       -0.1659
     35 F         143.1903  131.4417  153.4421 F       1  UNL1       -0.1659
     36 F         145.0838  129.4064  154.5699 F       1  UNL1       -0.1659
@<TRIPOS>BOND
     1     1     2    2
     2     2    22    1
     3    22    23    1
     4    23    24   am
     5    24    25    2
     6    24    27    1
     7    27    28   ar
     8    28    29   ar
     9    29    30   ar
    10    30    31   ar
    11    31    33    1
    12    33    34    1
    13    33    35    1
    14    33    36    1
    15    31    32   ar
    16     2     3   am
    17     3     5    1
    18     5     6    1
    19     6     7    1
    20     9     7    1
    21     9    10    1
    22    10    11    1
    23    11    12    1
    24    12    13    1
    25    12    17    1
    26    17    18   ar
    27    18    19   ar
    28    19    20   ar
    29    20    21   ar
    30    12    14    1
    31    14    15    1
    32     7     8    1
    33    32    27   ar
    34     8     5    1
    35    15     9    1
    36    21    17   ar
    37    23    26    1
    38     3     4    1
    39    13    16    1
