@<TRIPOS>MOLECULE
*****
 40 43 0 0 0
SMALL
GASTEIGER

@<TRIPOS>ATOM
      1 N         141.4767  145.4936  160.8335 N.am    1  UNL1       -0.2839
      2 C         140.8488  144.8713  159.6218 C.2     1  UNL1        0.2239
      3 O         139.5229  144.1791  159.7359 O.2     1  UNL1       -0.2751
      4 H         142.3469  145.9479  160.7586 H       1  UNL1        0.1512
      5 C         140.7788  145.4239  162.1594 C.3     1  UNL1        0.2237
      6 C         143.3398  143.3285  164.3505 C.ar    1  UNL1        0.0901
      7 N         142.7864  144.1924  163.2562 N.ar    1  UNL1       -0.1691
      8 N         141.3321  144.5600  163.2538 N.ar    1  UNL1       -0.1960
      9 C         140.4313  144.0638  164.3456 C.ar    1  UNL1        0.2779
     10 O         138.9770  144.4314  164.3432 O.2     1  UNL1       -0.2655
     11 C         140.9846  143.1999  165.4400 C.ar    1  UNL1        0.0610
     12 C         140.0838  142.7037  166.5318 C.ar    1  UNL1        0.0345
     13 C         140.6372  141.8399  167.6261 C.ar    1  UNL1        0.1403
     14 F         139.7363  141.3437  168.7180 F       1  UNL1       -0.2042
     15 C         142.0914  141.4723  167.6286 C.ar    1  UNL1        0.0297
     16 C         142.9923  141.9685  166.5367 C.ar    1  UNL1        0.0037
     17 C         142.4389  142.8323  165.4424 C.ar    1  UNL1        0.0206
     18 C         144.7940  142.9609  164.3529 C.3     1  UNL1        0.1569
     19 C         145.2633  141.7520  163.5991 C.2     1  UNL1        0.3231
     20 O         145.5686  141.8535  162.1339 O.2     1  UNL1       -0.2497
     21 O         145.4272  140.4416  164.3103 O.3     1  UNL1       -0.4482
     22 C         143.9013  138.6989  165.4871 C.3     1  UNL1        0.0513
     23 C         144.3406  139.4097  164.2414 C.3     1  UNL1        0.2086
     24 C         141.5467  144.9410  158.2958 C.3     1  UNL1        0.0865
     25 C         142.5729  143.9088  157.9332 C.3     1  UNL1        0.0269
     26 C         142.1670  142.4748  157.7643 C.3     1  UNL1        0.0727
     27 N         141.7975  141.6535  158.9639 N.3     1  UNL1       -0.2698
     28 C         142.5483  141.8258  160.2509 C.3     1  UNL1        0.0938
     29 C         142.1788  141.0046  161.4506 C.3     1  UNL1        0.1081
     30 N         141.0585  140.0110  161.3631 N.pl3   1  UNL1       -0.3049
     31 C         140.3076  139.8387  160.0759 C.3     1  UNL1        0.1081
     32 C         140.6772  140.6599  158.8764 C.3     1  UNL1        0.0938
     33 C         140.6889  139.1897  162.5626 C.ar    1  UNL1        0.0436
     34 C         141.3546  137.8666  162.7996 C.ar    1  UNL1        0.0142
     35 C         140.9851  137.0453  163.9992 C.ar    1  UNL1        0.0009
     36 C         139.9499  137.5471  164.9617 C.ar    1  UNL1       -0.0045
     37 C         139.2842  138.8703  164.7247 C.ar    1  UNL1       -0.0246
     38 C         138.2490  139.3722  165.6872 C.3     1  UNL1        0.0307
     39 C         139.6537  139.6916  163.5251 C.ar    1  UNL1       -0.0125
     40 C         138.9880  141.0147  163.2882 C.3     1  UNL1        0.0320
@<TRIPOS>BOND
     1    22    23    1
     2    23    21    1
     3    21    19    1
     4    19    20    2
     5    19    18    1
     6    18     6    1
     7     6     7   ar
     8     7     8   ar
     9     8     5    1
    10     5     1    1
    11     1     2   am
    12     2     3    2
    13     2    24    1
    14    24    25    1
    15    25    26    1
    16    26    27    1
    17    27    28    1
    18    28    29    1
    19    29    30    1
    20    30    33    1
    21    33    34   ar
    22    34    35   ar
    23    35    36   ar
    24    36    37   ar
    25    37    38    1
    26    37    39   ar
    27    39    40    1
    28    30    31    1
    29    31    32    1
    30     8     9   ar
    31     9    10    2
    32     9    11   ar
    33    11    12   ar
    34    12    13   ar
    35    13    14    1
    36    13    15   ar
    37    15    16   ar
    38    16    17   ar
    39    17     6   ar
    40    32    27    1
    41    17    11   ar
    42    39    33   ar
    43     1     4    1
@<TRIPOS>MOLECULE
*****
 40 43 0 0 0
SMALL
GASTEIGER

@<TRIPOS>ATOM
      1 N         141.7370  145.2844  162.1141 N.am    1  UNL1       -0.2839
      2 C         140.6155  145.4042  161.1252 C.2     1  UNL1        0.2239
      3 O         139.1928  145.4007  161.6007 O.2     1  UNL1       -0.2751
      4 H         142.6707  145.2867  161.8020 H       1  UNL1        0.1512
      5 C         141.4358  145.1611  163.5783 C.3     1  UNL1        0.2237
      6 C         141.0221  142.1553  166.1365 C.ar    1  UNL1        0.0901
      7 N         140.7877  143.4573  165.4296 N.ar    1  UNL1       -0.1691
      8 N         141.6703  143.8590  164.2852 N.ar    1  UNL1       -0.1960
      9 C         142.7873  142.9585  163.8476 C.ar    1  UNL1        0.2779
     10 O         143.6699  143.3601  162.7032 O.2     1  UNL1       -0.2655
     11 C         143.0217  141.6564  164.5545 C.ar    1  UNL1        0.0610
     12 C         144.1387  140.7560  164.1170 C.ar    1  UNL1        0.0345
     13 C         144.3731  139.4540  164.8239 C.ar    1  UNL1        0.1403
     14 F         145.4902  138.5535  164.3863 F       1  UNL1       -0.2042
     15 C         143.4905  139.0523  165.9683 C.ar    1  UNL1        0.0297
     16 C         142.3735  139.9528  166.4058 C.ar    1  UNL1        0.0037
     17 C         142.1391  141.2548  165.6990 C.ar    1  UNL1        0.0206
     18 C         140.1394  141.7537  167.2809 C.3     1  UNL1        0.1569
     19 C         140.4348  142.2490  168.6656 C.2     1  UNL1        0.3231
     20 O         140.1109  143.6649  169.0407 O.2     1  UNL1       -0.2497
     21 O         141.0541  141.3286  169.6752 O.3     1  UNL1       -0.4482
     22 C         143.4327  142.2971  169.2823 C.3     1  UNL1        0.0513
     23 C         142.5451  141.1762  169.7360 C.3     1  UNL1        0.2086
     24 C         140.9166  145.5275  159.6609 C.3     1  UNL1        0.0865
     25 C         140.0585  144.8174  158.6563 C.3     1  UNL1        0.0269
     26 C         140.3023  143.3689  158.3523 C.3     1  UNL1        0.0727
     27 N         140.2771  142.3558  159.4582 N.3     1  UNL1       -0.2698
     28 C         141.5481  141.9809  160.1611 C.3     1  UNL1        0.0938
     29 C         141.5228  140.9678  161.2670 C.3     1  UNL1        0.1081
     30 N         140.2266  140.3296  161.6700 N.pl3   1  UNL1       -0.3049
     31 C         138.9556  140.7044  160.9670 C.3     1  UNL1        0.1081
     32 C         138.9809  141.7175  159.8612 C.3     1  UNL1        0.0938
     33 C         140.2013  139.3165  162.7758 C.ar    1  UNL1        0.0436
     34 C         141.1086  138.1233  162.7207 C.ar    1  UNL1        0.0142
     35 C         141.0834  137.1101  163.8266 C.ar    1  UNL1        0.0009
     36 C         140.1508  137.2902  164.9876 C.ar    1  UNL1       -0.0045
     37 C         139.2435  138.4835  165.0427 C.ar    1  UNL1       -0.0246
     38 C         138.3109  138.6636  166.2037 C.3     1  UNL1        0.0307
     39 C         139.2688  139.4966  163.9368 C.ar    1  UNL1       -0.0125
     40 C         138.3615  140.6898  163.9920 C.3     1  UNL1        0.0320
@<TRIPOS>BOND
     1    22    23    1
     2    23    21    1
     3    21    19    1
     4    19    20    2
     5    19    18    1
     6    18     6    1
     7     6     7   ar
     8     7     8   ar
     9     8     5    1
    10     5     1    1
    11     1     2   am
    12     2     3    2
    13     2    24    1
    14    24    25    1
    15    25    26    1
    16    26    27    1
    17    27    28    1
    18    28    29    1
    19    29    30    1
    20    30    33    1
    21    33    34   ar
    22    34    35   ar
    23    35    36   ar
    24    36    37   ar
    25    37    38    1
    26    37    39   ar
    27    39    40    1
    28    30    31    1
    29    31    32    1
    30     8     9   ar
    31     9    10    2
    32     9    11   ar
    33    11    12   ar
    34    12    13   ar
    35    13    14    1
    36    13    15   ar
    37    15    16   ar
    38    16    17   ar
    39    17     6   ar
    40    32    27    1
    41    17    11   ar
    42    39    33   ar
    43     1     4    1
@<TRIPOS>MOLECULE
*****
 40 43 0 0 0
SMALL
GASTEIGER

@<TRIPOS>ATOM
      1 N         139.7101  141.3797  158.4043 N.am    1  UNL1       -0.2839
      2 C         140.2067  142.7854  158.2397 C.2     1  UNL1        0.2239
      3 O         139.3871  143.9346  158.7473 O.2     1  UNL1       -0.2751
      4 H         140.2480  140.6254  158.0711 H       1  UNL1        0.1512
      5 C         138.3939  141.1231  159.0764 C.3     1  UNL1        0.2237
      6 C         137.8777  142.0891  162.8909 C.ar    1  UNL1        0.0901
      7 N         137.9472  142.2029  161.3969 N.ar    1  UNL1       -0.1691
      8 N         138.3244  141.0092  160.5705 N.ar    1  UNL1       -0.1960
      9 C         138.6320  139.7017  161.2382 C.ar    1  UNL1        0.2779
     10 O         139.0092  138.5081  160.4118 O.2     1  UNL1       -0.2655
     11 C         138.5625  139.5879  162.7323 C.ar    1  UNL1        0.0610
     12 C         138.8701  138.2804  163.4000 C.ar    1  UNL1        0.0345
     13 C         138.8006  138.1666  164.8940 C.ar    1  UNL1        0.1403
     14 F         139.1082  136.8591  165.5617 F       1  UNL1       -0.2042
     15 C         138.4234  139.3603  165.7204 C.ar    1  UNL1        0.0297
     16 C         138.1158  140.6678  165.0527 C.ar    1  UNL1        0.0037
     17 C         138.1853  140.7816  163.5587 C.ar    1  UNL1        0.0206
     18 C         137.5005  143.2828  163.7173 C.3     1  UNL1        0.1569
     19 C         138.3645  144.5088  163.7020 C.2     1  UNL1        0.3231
     20 O         138.9514  145.0288  164.9808 O.2     1  UNL1       -0.2497
     21 O         138.6417  145.2149  162.4080 O.3     1  UNL1       -0.4482
     22 C         140.9976  144.3179  161.7795 C.3     1  UNL1        0.0513
     23 C         140.0569  145.4688  161.9802 C.3     1  UNL1        0.2086
     24 C         141.5229  143.0421  157.5675 C.3     1  UNL1        0.0865
     25 C         142.6460  143.6746  158.3345 C.3     1  UNL1        0.0269
     26 C         143.7251  142.8179  158.9274 C.3     1  UNL1        0.0727
     27 N         143.5424  142.2176  160.2899 N.3     1  UNL1       -0.2698
     28 C         144.3714  142.7044  161.4413 C.3     1  UNL1        0.0938
     29 C         144.1888  142.1041  162.8038 C.3     1  UNL1        0.1081
     30 N         143.1771  141.0169  163.0148 N.pl3   1  UNL1       -0.3049
     31 C         142.3481  140.5301  161.8634 C.3     1  UNL1        0.1081
     32 C         142.5308  141.1304  160.5010 C.3     1  UNL1        0.0938
     33 C         142.9944  140.4166  164.3772 C.ar    1  UNL1        0.0436
     34 C         143.7235  139.1589  164.7465 C.ar    1  UNL1        0.0142
     35 C         143.5408  138.5585  166.1090 C.ar    1  UNL1        0.0009
     36 C         142.6290  139.2159  167.1021 C.ar    1  UNL1       -0.0045
     37 C         141.8999  140.4738  166.7328 C.ar    1  UNL1       -0.0246
     38 C         140.9881  141.1312  167.7260 C.3     1  UNL1        0.0307
     39 C         142.0826  141.0741  165.3704 C.ar    1  UNL1       -0.0125
     40 C         141.3535  142.3318  165.0012 C.3     1  UNL1        0.0320
@<TRIPOS>BOND
     1    22    23    1
     2    23    21    1
     3    21    19    1
     4    19    20    2
     5    19    18    1
     6    18     6    1
     7     6     7   ar
     8     7     8   ar
     9     8     5    1
    10     5     1    1
    11     1     2   am
    12     2     3    2
    13     2    24    1
    14    24    25    1
    15    25    26    1
    16    26    27    1
    17    27    28    1
    18    28    29    1
    19    29    30    1
    20    30    33    1
    21    33    34   ar
    22    34    35   ar
    23    35    36   ar
    24    36    37   ar
    25    37    38    1
    26    37    39   ar
    27    39    40    1
    28    30    31    1
    29    31    32    1
    30     8     9   ar
    31     9    10    2
    32     9    11   ar
    33    11    12   ar
    34    12    13   ar
    35    13    14    1
    36    13    15   ar
    37    15    16   ar
    38    16    17   ar
    39    17     6   ar
    40    32    27    1
    41    17    11   ar
    42    39    33   ar
    43     1     4    1
@<TRIPOS>MOLECULE
*****
 40 43 0 0 0
SMALL
GASTEIGER

@<TRIPOS>ATOM
      1 N         143.2431  143.5861  160.2053 N.am    1  UNL1       -0.2839
      2 C         141.9734  143.7728  159.4288 C.2     1  UNL1        0.2239
      3 O         141.3087  142.5932  158.7833 O.2     1  UNL1       -0.2751
      4 H         143.6794  144.3603  160.6289 H       1  UNL1        0.1512
      5 C         143.8482  142.2198  160.3362 C.3     1  UNL1        0.2237
      6 C         141.7759  139.1792  161.8229 C.ar    1  UNL1        0.0901
      7 N         142.3464  140.1613  160.8431 N.ar    1  UNL1       -0.1691
      8 N         143.2777  141.2377  161.3161 N.ar    1  UNL1       -0.1960
      9 C         143.6387  141.3321  162.7689 C.ar    1  UNL1        0.2779
     10 O         144.5700  142.4086  163.2420 O.2     1  UNL1       -0.2655
     11 C         143.0682  140.3500  163.7489 C.ar    1  UNL1        0.0610
     12 C         143.4292  140.4444  165.2017 C.ar    1  UNL1        0.0345
     13 C         142.8587  139.4623  166.1815 C.ar    1  UNL1        0.1403
     14 F         143.2197  139.5567  167.6344 F       1  UNL1       -0.2042
     15 C         141.9274  138.3859  165.7085 C.ar    1  UNL1        0.0297
     16 C         141.5664  138.2915  164.2556 C.ar    1  UNL1        0.0037
     17 C         142.1369  139.2735  163.2758 C.ar    1  UNL1        0.0206
     18 C         140.8446  138.1027  161.3499 C.3     1  UNL1        0.1569
     19 C         139.3794  138.3891  161.2048 C.2     1  UNL1        0.3231
     20 O         138.3926  137.7361  162.1269 O.2     1  UNL1       -0.2497
     21 O         138.9008  139.3284  160.1378 O.3     1  UNL1       -0.4482
     22 C         138.4460  141.8324  160.6606 C.3     1  UNL1        0.0513
     23 C         137.9433  140.4303  160.4830 C.3     1  UNL1        0.2086
     24 C         141.3683  145.1391  159.2978 C.3     1  UNL1        0.0865
     25 C         140.1016  145.4716  160.0291 C.3     1  UNL1        0.0269
     26 C         140.1575  145.9261  161.4575 C.3     1  UNL1        0.0727
     27 N         140.0430  144.9244  162.5682 N.3     1  UNL1       -0.2698
     28 C         141.2715  144.2410  163.0914 C.3     1  UNL1        0.0938
     29 C         141.1570  143.2394  164.2021 C.3     1  UNL1        0.1081
     30 N         139.8141  142.9212  164.7897 N.pl3   1  UNL1       -0.3049
     31 C         138.5856  143.6048  164.2665 C.3     1  UNL1        0.1081
     32 C         138.7001  144.6063  163.1558 C.3     1  UNL1        0.0938
     33 C         139.6996  141.9197  165.9004 C.ar    1  UNL1        0.0436
     34 C         140.3812  142.1734  167.2123 C.ar    1  UNL1        0.0142
     35 C         140.2667  141.1718  168.3231 C.ar    1  UNL1        0.0009
     36 C         139.4706  139.9165  168.1219 C.ar    1  UNL1       -0.0045
     37 C         138.7890  139.6628  166.8100 C.ar    1  UNL1       -0.0246
     38 C         137.9928  138.4075  166.6089 C.3     1  UNL1        0.0307
     39 C         138.9035  140.6644  165.6993 C.ar    1  UNL1       -0.0125
     40 C         138.2218  140.4107  164.3874 C.3     1  UNL1        0.0320
@<TRIPOS>BOND
     1    22    23    1
     2    23    21    1
     3    21    19    1
     4    19    20    2
     5    19    18    1
     6    18     6    1
     7     6     7   ar
     8     7     8   ar
     9     8     5    1
    10     5     1    1
    11     1     2   am
    12     2     3    2
    13     2    24    1
    14    24    25    1
    15    25    26    1
    16    26    27    1
    17    27    28    1
    18    28    29    1
    19    29    30    1
    20    30    33    1
    21    33    34   ar
    22    34    35   ar
    23    35    36   ar
    24    36    37   ar
    25    37    38    1
    26    37    39   ar
    27    39    40    1
    28    30    31    1
    29    31    32    1
    30     8     9   ar
    31     9    10    2
    32     9    11   ar
    33    11    12   ar
    34    12    13   ar
    35    13    14    1
    36    13    15   ar
    37    15    16   ar
    38    16    17   ar
    39    17     6   ar
    40    32    27    1
    41    17    11   ar
    42    39    33   ar
    43     1     4    1
@<TRIPOS>MOLECULE
*****
 40 43 0 0 0
SMALL
GASTEIGER

@<TRIPOS>ATOM
      1 N         138.8059  143.2024  159.6788 N.am    1  UNL1       -0.2839
      2 C         140.1532  143.8315  159.4816 C.2     1  UNL1        0.2239
      3 O         141.3126  142.9946  159.0284 O.2     1  UNL1       -0.2751
      4 H         138.0449  143.7517  159.9763 H       1  UNL1        0.1512
      5 C         138.6180  141.7364  159.4229 C.3     1  UNL1        0.2237
      6 C         140.7983  138.8116  160.9855 C.ar    1  UNL1        0.0901
      7 N         140.2696  139.8177  160.0066 N.ar    1  UNL1       -0.1691
      8 N         139.1466  140.7303  160.4018 N.ar    1  UNL1       -0.1960
      9 C         138.5523  140.6367  161.7758 C.ar    1  UNL1        0.2779
     10 O         137.4294  141.5493  162.1710 O.2     1  UNL1       -0.2655
     11 C         139.0810  139.6306  162.7548 C.ar    1  UNL1        0.0610
     12 C         138.4867  139.5371  164.1288 C.ar    1  UNL1        0.0345
     13 C         139.0154  138.5310  165.1077 C.ar    1  UNL1        0.1403
     14 F         138.4211  138.4374  166.4818 F       1  UNL1       -0.2042
     15 C         140.1384  137.6184  164.7125 C.ar    1  UNL1        0.0297
     16 C         140.7327  137.7120  163.3385 C.ar    1  UNL1        0.0037
     17 C         140.2040  138.7181  162.3596 C.ar    1  UNL1        0.0206
     18 C         141.9213  137.8991  160.5904 C.3     1  UNL1        0.1569
     19 C         143.3437  138.3474  160.7506 C.2     1  UNL1        0.3231
     20 O         144.0778  138.0707  162.0291 O.2     1  UNL1       -0.2497
     21 O         144.0321  139.0723  159.6323 O.3     1  UNL1       -0.4482
     22 C         143.9833  141.4551  160.6667 C.3     1  UNL1        0.0513
     23 C         143.8519  140.5532  159.4754 C.3     1  UNL1        0.2086
     24 C         140.3411  145.2975  159.7375 C.3     1  UNL1        0.0865
     25 C         139.5875  145.9677  160.8479 C.3     1  UNL1        0.0269
     26 C         140.2631  146.2303  162.1611 C.3     1  UNL1        0.0727
     27 N         140.5471  145.0945  163.0988 N.3     1  UNL1       -0.2698
     28 C         139.4698  144.1024  163.4231 C.3     1  UNL1        0.0938
     29 C         139.7538  142.9665  164.3608 C.3     1  UNL1        0.1081
     30 N         141.1151  142.8229  164.9743 N.pl3   1  UNL1       -0.3049
     31 C         142.1924  143.8151  164.6500 C.3     1  UNL1        0.1081
     32 C         141.9084  144.9508  163.7123 C.3     1  UNL1        0.0938
     33 C         141.3991  141.6871  165.9120 C.ar    1  UNL1        0.0436
     34 C         140.7330  141.6391  167.2552 C.ar    1  UNL1        0.0142
     35 C         141.0170  140.5033  168.1930 C.ar    1  UNL1        0.0009
     36 C         141.9670  139.4156  167.7876 C.ar    1  UNL1       -0.0045
     37 C         142.6331  139.4637  166.4444 C.ar    1  UNL1       -0.0246
     38 C         143.5831  138.3760  166.0390 C.3     1  UNL1        0.0307
     39 C         142.3491  140.5994  165.5066 C.ar    1  UNL1       -0.0125
     40 C         143.0151  140.6474  164.1635 C.3     1  UNL1        0.0320
@<TRIPOS>BOND
     1    22    23    1
     2    23    21    1
     3    21    19    1
     4    19    20    2
     5    19    18    1
     6    18     6    1
     7     6     7   ar
     8     7     8   ar
     9     8     5    1
    10     5     1    1
    11     1     2   am
    12     2     3    2
    13     2    24    1
    14    24    25    1
    15    25    26    1
    16    26    27    1
    17    27    28    1
    18    28    29    1
    19    29    30    1
    20    30    33    1
    21    33    34   ar
    22    34    35   ar
    23    35    36   ar
    24    36    37   ar
    25    37    38    1
    26    37    39   ar
    27    39    40    1
    28    30    31    1
    29    31    32    1
    30     8     9   ar
    31     9    10    2
    32     9    11   ar
    33    11    12   ar
    34    12    13   ar
    35    13    14    1
    36    13    15   ar
    37    15    16   ar
    38    16    17   ar
    39    17     6   ar
    40    32    27    1
    41    17    11   ar
    42    39    33   ar
    43     1     4    1
@<TRIPOS>MOLECULE
*****
 40 43 0 0 0
SMALL
GASTEIGER

@<TRIPOS>ATOM
      1 N         142.5705  144.4342  160.9815 N.am    1  UNL1       -0.2839
      2 C         141.4305  144.9936  160.1833 C.2     1  UNL1        0.2239
      3 O         140.3850  145.8332  160.8555 O.2     1  UNL1       -0.2751
      4 H         143.2567  143.8831  160.5403 H       1  UNL1        0.1512
      5 C         142.6650  144.7143  162.4521 C.3     1  UNL1        0.2237
      6 C         140.4331  141.8922  164.1267 C.ar    1  UNL1        0.0901
      7 N         140.9339  142.9021  163.1372 N.ar    1  UNL1       -0.1691
      8 N         142.1642  143.7044  163.4417 N.ar    1  UNL1       -0.1960
      9 C         142.8937  143.4968  164.7358 C.ar    1  UNL1        0.2779
     10 O         144.1240  144.2990  165.0403 O.2     1  UNL1       -0.2655
     11 C         142.3929  142.4868  165.7254 C.ar    1  UNL1        0.0610
     12 C         143.1224  142.2792  167.0195 C.ar    1  UNL1        0.0345
     13 C         142.6216  141.2693  168.0091 C.ar    1  UNL1        0.1403
     14 F         143.3511  141.0616  169.3032 F       1  UNL1       -0.2042
     15 C         141.3913  140.4670  167.7045 C.ar    1  UNL1        0.0297
     16 C         140.6618  140.6746  166.4104 C.ar    1  UNL1        0.0037
     17 C         141.1626  141.6845  165.4209 C.ar    1  UNL1        0.0206
     18 C         139.2028  141.0899  163.8222 C.3     1  UNL1        0.1569
     19 C         137.8798  141.7779  163.6604 C.2     1  UNL1        0.3231
     20 O         136.9947  141.4376  162.4981 O.2     1  UNL1       -0.2497
     21 O         137.4419  142.8062  164.6608 O.3     1  UNL1       -0.4482
     22 C         138.7080  144.9284  165.4628 C.3     1  UNL1        0.0513
     23 C         137.8155  144.2462  164.4688 C.3     1  UNL1        0.2086
     24 C         141.3360  144.7135  158.7126 C.3     1  UNL1        0.0865
     25 C         142.5312  144.1945  157.9697 C.3     1  UNL1        0.0269
     26 C         142.7255  142.7169  157.8003 C.3     1  UNL1        0.0727
     27 N         142.5589  141.7990  158.9750 N.3     1  UNL1       -0.2698
     28 C         143.7639  141.3164  159.7266 C.3     1  UNL1        0.0938
     29 C         143.5973  140.3986  160.9013 C.3     1  UNL1        0.1081
     30 N         142.2256  139.9633  161.3244 N.pl3   1  UNL1       -0.3049
     31 C         141.0205  140.4459  160.5727 C.3     1  UNL1        0.1081
     32 C         141.1872  141.3637  159.3981 C.3     1  UNL1        0.0938
     33 C         142.0589  139.0455  162.4990 C.ar    1  UNL1        0.0436
     34 C         140.9632  138.0212  162.5008 C.ar    1  UNL1        0.0142
     35 C         140.7965  137.1033  163.6755 C.ar    1  UNL1        0.0009
     36 C         141.7256  137.2098  164.8483 C.ar    1  UNL1       -0.0045
     37 C         142.8214  138.2341  164.8464 C.ar    1  UNL1       -0.0246
     38 C         143.7505  138.3406  166.0192 C.3     1  UNL1        0.0307
     39 C         142.9880  139.1520  163.6718 C.ar    1  UNL1       -0.0125
     40 C         144.0838  140.1763  163.6699 C.3     1  UNL1        0.0320
@<TRIPOS>BOND
     1    22    23    1
     2    23    21    1
     3    21    19    1
     4    19    20    2
     5    19    18    1
     6    18     6    1
     7     6     7   ar
     8     7     8   ar
     9     8     5    1
    10     5     1    1
    11     1     2   am
    12     2     3    2
    13     2    24    1
    14    24    25    1
    15    25    26    1
    16    26    27    1
    17    27    28    1
    18    28    29    1
    19    29    30    1
    20    30    33    1
    21    33    34   ar
    22    34    35   ar
    23    35    36   ar
    24    36    37   ar
    25    37    38    1
    26    37    39   ar
    27    39    40    1
    28    30    31    1
    29    31    32    1
    30     8     9   ar
    31     9    10    2
    32     9    11   ar
    33    11    12   ar
    34    12    13   ar
    35    13    14    1
    36    13    15   ar
    37    15    16   ar
    38    16    17   ar
    39    17     6   ar
    40    32    27    1
    41    17    11   ar
    42    39    33   ar
    43     1     4    1
@<TRIPOS>MOLECULE
*****
 40 43 0 0 0
SMALL
GASTEIGER

@<TRIPOS>ATOM
      1 N         139.7323  140.2394  158.4427 N.am    1  UNL1       -0.2839
      2 C         141.0640  140.9177  158.5714 C.2     1  UNL1        0.2239
      3 O         141.1872  142.1834  159.3668 O.2     1  UNL1       -0.2751
      4 H         139.6515  139.4086  157.9206 H       1  UNL1        0.1512
      5 C         138.5239  140.8268  159.1094 C.3     1  UNL1        0.2237
      6 C         137.8962  141.9936  162.8503 C.ar    1  UNL1        0.0901
      7 N         138.0208  142.0309  161.3560 N.ar    1  UNL1       -0.1691
      8 N         138.3993  140.7895  160.6038 N.ar    1  UNL1       -0.1960
      9 C         138.6531  139.5109  161.3459 C.ar    1  UNL1        0.2779
     10 O         139.0316  138.2696  160.5936 O.2     1  UNL1       -0.2655
     11 C         138.5285  139.4736  162.8403 C.ar    1  UNL1        0.0610
     12 C         138.7823  138.1951  163.5824 C.ar    1  UNL1        0.0345
     13 C         138.6577  138.1578  165.0767 C.ar    1  UNL1        0.1403
     14 F         138.9115  136.8792  165.8189 F       1  UNL1       -0.2042
     15 C         138.2792  139.3992  165.8289 C.ar    1  UNL1        0.0297
     16 C         138.0254  140.6777  165.0868 C.ar    1  UNL1        0.0037
     17 C         138.1500  140.7150  163.5925 C.ar    1  UNL1        0.0206
     18 C         137.5178  143.2350  163.6025 C.3     1  UNL1        0.1569
     19 C         138.4106  144.4395  163.5595 C.2     1  UNL1        0.3231
     20 O         139.1529  144.8673  164.7908 O.2     1  UNL1       -0.2497
     21 O         138.5611  145.2163  162.2852 O.3     1  UNL1       -0.4482
     22 C         141.1146  144.8052  162.0384 C.3     1  UNL1        0.0513
     23 C         139.9169  145.6885  161.8504 C.3     1  UNL1        0.2086
     24 C         142.2725  140.3302  157.9046 C.3     1  UNL1        0.0865
     25 C         143.6226  140.4671  158.5438 C.3     1  UNL1        0.0269
     26 C         143.9995  139.5845  159.6965 C.3     1  UNL1        0.0727
     27 N         143.5322  139.9198  161.0820 N.3     1  UNL1       -0.2698
     28 C         144.1798  141.0394  161.8415 C.3     1  UNL1        0.0938
     29 C         143.7125  141.3747  163.2269 C.3     1  UNL1        0.1081
     30 N         142.5976  140.5902  163.8527 N.pl3   1  UNL1       -0.3049
     31 C         141.9500  139.4705  163.0931 C.3     1  UNL1        0.1081
     32 C         142.4173  139.1353  161.7078 C.3     1  UNL1        0.0938
     33 C         142.1303  140.9254  165.2381 C.ar    1  UNL1        0.0436
     34 C         141.2942  142.1486  165.4721 C.ar    1  UNL1        0.0142
     35 C         140.8269  142.4839  166.8575 C.ar    1  UNL1        0.0009
     36 C         141.1957  141.5959  168.0088 C.ar    1  UNL1       -0.0045
     37 C         142.0318  140.3727  167.7747 C.ar    1  UNL1       -0.0246
     38 C         142.4006  139.4847  168.9261 C.3     1  UNL1        0.0307
     39 C         142.4991  140.0375  166.3894 C.ar    1  UNL1       -0.0125
     40 C         143.3352  138.8143  166.1554 C.3     1  UNL1        0.0320
@<TRIPOS>BOND
     1    22    23    1
     2    23    21    1
     3    21    19    1
     4    19    20    2
     5    19    18    1
     6    18     6    1
     7     6     7   ar
     8     7     8   ar
     9     8     5    1
    10     5     1    1
    11     1     2   am
    12     2     3    2
    13     2    24    1
    14    24    25    1
    15    25    26    1
    16    26    27    1
    17    27    28    1
    18    28    29    1
    19    29    30    1
    20    30    33    1
    21    33    34   ar
    22    34    35   ar
    23    35    36   ar
    24    36    37   ar
    25    37    38    1
    26    37    39   ar
    27    39    40    1
    28    30    31    1
    29    31    32    1
    30     8     9   ar
    31     9    10    2
    32     9    11   ar
    33    11    12   ar
    34    12    13   ar
    35    13    14    1
    36    13    15   ar
    37    15    16   ar
    38    16    17   ar
    39    17     6   ar
    40    32    27    1
    41    17    11   ar
    42    39    33   ar
    43     1     4    1
@<TRIPOS>MOLECULE
*****
 40 43 0 0 0
SMALL
GASTEIGER

@<TRIPOS>ATOM
      1 N         138.9139  143.2844  159.7627 N.am    1  UNL1       -0.2839
      2 C         140.1953  143.9240  160.2085 C.2     1  UNL1        0.2239
      3 O         141.4358  143.0938  160.3573 O.2     1  UNL1       -0.2751
      4 H         138.0997  143.8293  159.6650 H       1  UNL1        0.1512
      5 C         138.8728  141.8147  159.4657 C.3     1  UNL1        0.2237
      6 C         140.7911  138.8867  161.3357 C.ar    1  UNL1        0.0901
      7 N         140.4002  139.8766  160.2788 N.ar    1  UNL1       -0.1691
      8 N         139.2637  140.8247  160.5227 N.ar    1  UNL1       -0.1960
      9 C         138.5182  140.7829  161.8236 C.ar    1  UNL1        0.2779
     10 O         137.3817  141.7311  162.0676 O.2     1  UNL1       -0.2655
     11 C         138.9091  139.7930  162.8807 C.ar    1  UNL1        0.0610
     12 C         138.1635  139.7512  164.1816 C.ar    1  UNL1        0.0345
     13 C         138.5544  138.7613  165.2385 C.ar    1  UNL1        0.1403
     14 F         137.8089  138.7194  166.5395 F       1  UNL1       -0.2042
     15 C         139.6909  137.8131  164.9946 C.ar    1  UNL1        0.0297
     16 C         140.4364  137.8549  163.6937 C.ar    1  UNL1        0.0037
     17 C         140.0455  138.8448  162.6367 C.ar    1  UNL1        0.0206
     18 C         141.9275  137.9385  161.0918 C.3     1  UNL1        0.1569
     19 C         143.3419  138.3949  161.2951 C.2     1  UNL1        0.3231
     20 O         144.1668  138.8274  160.1192 O.2     1  UNL1       -0.2497
     21 O         143.9314  138.4188  162.6742 O.3     1  UNL1       -0.4482
     22 C         143.5688  140.9891  162.7846 C.3     1  UNL1        0.0513
     23 C         144.0527  139.7172  163.4155 C.3     1  UNL1        0.2086
     24 C         140.2364  145.3937  160.5055 C.3     1  UNL1        0.0865
     25 C         140.0344  145.8811  161.9096 C.3     1  UNL1        0.0269
     26 C         139.1229  145.1352  162.8385 C.3     1  UNL1        0.0727
     27 N         139.6975  144.2151  163.8745 N.3     1  UNL1       -0.2698
     28 C         141.1842  144.1115  164.0439 C.3     1  UNL1        0.0938
     29 C         141.7588  143.1913  165.0799 C.3     1  UNL1        0.1081
     30 N         140.8465  142.3749  165.9466 N.pl3   1  UNL1       -0.3049
     31 C         139.3596  142.4786  165.7772 C.3     1  UNL1        0.1081
     32 C         138.7852  143.3986  164.7412 C.3     1  UNL1        0.0938
     33 C         141.4210  141.4548  166.9826 C.ar    1  UNL1        0.0436
     34 C         142.1155  140.1933  166.5630 C.ar    1  UNL1        0.0142
     35 C         142.6900  139.2731  167.5990 C.ar    1  UNL1        0.0009
     36 C         142.5699  139.6145  169.0547 C.ar    1  UNL1       -0.0045
     37 C         141.8753  140.8761  169.4743 C.ar    1  UNL1       -0.0246
     38 C         141.7552  141.2175  170.9300 C.3     1  UNL1        0.0307
     39 C         141.3009  141.7962  168.4383 C.ar    1  UNL1       -0.0125
     40 C         140.6063  143.0577  168.8580 C.3     1  UNL1        0.0320
@<TRIPOS>BOND
     1    22    23    1
     2    23    21    1
     3    21    19    1
     4    19    20    2
     5    19    18    1
     6    18     6    1
     7     6     7   ar
     8     7     8   ar
     9     8     5    1
    10     5     1    1
    11     1     2   am
    12     2     3    2
    13     2    24    1
    14    24    25    1
    15    25    26    1
    16    26    27    1
    17    27    28    1
    18    28    29    1
    19    29    30    1
    20    30    33    1
    21    33    34   ar
    22    34    35   ar
    23    35    36   ar
    24    36    37   ar
    25    37    38    1
    26    37    39   ar
    27    39    40    1
    28    30    31    1
    29    31    32    1
    30     8     9   ar
    31     9    10    2
    32     9    11   ar
    33    11    12   ar
    34    12    13   ar
    35    13    14    1
    36    13    15   ar
    37    15    16   ar
    38    16    17   ar
    39    17     6   ar
    40    32    27    1
    41    17    11   ar
    42    39    33   ar
    43     1     4    1
@<TRIPOS>MOLECULE
*****
 40 43 0 0 0
SMALL
GASTEIGER

@<TRIPOS>ATOM
      1 N         142.6277  141.8396  157.9703 N.am    1  UNL1       -0.2839
      2 C         143.3345  140.6208  157.4555 C.2     1  UNL1        0.2239
      3 O         144.7765  140.3895  157.7977 O.2     1  UNL1       -0.2751
      4 H         141.6813  141.9914  157.7457 H       1  UNL1        0.1512
      5 C         143.3629  142.8270  158.8272 C.3     1  UNL1        0.2237
      6 C         143.1152  143.9771  162.6175 C.ar    1  UNL1        0.0901
      7 N         143.6930  143.5504  161.3007 N.ar    1  UNL1       -0.1691
      8 N         142.7851  143.2537  160.1441 N.ar    1  UNL1       -0.1960
      9 C         141.2994  143.3838  160.3043 C.ar    1  UNL1        0.2779
     10 O         140.3915  143.0871  159.1478 O.2     1  UNL1       -0.2655
     11 C         140.7215  143.8105  161.6212 C.ar    1  UNL1        0.0610
     12 C         139.2358  143.9405  161.7815 C.ar    1  UNL1        0.0345
     13 C         138.6580  144.3672  163.0983 C.ar    1  UNL1        0.1403
     14 F         137.1723  144.4973  163.2586 F       1  UNL1       -0.2042
     15 C         139.5660  144.6639  164.2548 C.ar    1  UNL1        0.0297
     16 C         141.0517  144.5339  164.0946 C.ar    1  UNL1        0.0037
     17 C         141.6294  144.1072  162.7778 C.ar    1  UNL1        0.0206
     18 C         144.0232  144.2738  163.7741 C.3     1  UNL1        0.1569
     19 C         144.5048  143.1591  164.6546 C.2     1  UNL1        0.3231
     20 O         143.9846  143.0319  166.0558 O.2     1  UNL1       -0.2497
     21 O         145.5066  142.1714  164.1340 O.3     1  UNL1       -0.4482
     22 C         145.0245  139.6222  164.2717 C.3     1  UNL1        0.0513
     23 C         145.0407  140.9006  163.4874 C.3     1  UNL1        0.2086
     24 C         142.5993  139.6333  156.5985 C.3     1  UNL1        0.0865
     25 C         141.8320  138.5128  157.2352 C.3     1  UNL1        0.0269
     26 C         142.3707  137.8364  158.4609 C.3     1  UNL1        0.0727
     27 N         141.9409  138.2975  159.8221 N.3     1  UNL1       -0.2698
     28 C         142.5951  137.7306  161.0471 C.3     1  UNL1        0.0938
     29 C         142.1653  138.1917  162.4083 C.3     1  UNL1        0.1081
     30 N         141.0814  139.2196  162.5444 N.pl3   1  UNL1       -0.3049
     31 C         140.4272  139.7865  161.3193 C.3     1  UNL1        0.1081
     32 C         140.8570  139.3254  159.9581 C.3     1  UNL1        0.0938
     33 C         140.6516  139.6807  163.9055 C.ar    1  UNL1        0.0436
     34 C         141.3356  140.8483  164.5524 C.ar    1  UNL1        0.0142
     35 C         140.9058  141.3094  165.9136 C.ar    1  UNL1        0.0009
     36 C         139.7920  140.6028  166.6278 C.ar    1  UNL1       -0.0045
     37 C         139.1079  139.4351  165.9807 C.ar    1  UNL1       -0.0246
     38 C         137.9940  138.7285  166.6949 C.3     1  UNL1        0.0307
     39 C         139.5377  138.9741  164.6196 C.ar    1  UNL1       -0.0125
     40 C         138.8536  137.8064  163.9727 C.3     1  UNL1        0.0320
@<TRIPOS>BOND
     1    22    23    1
     2    23    21    1
     3    21    19    1
     4    19    20    2
     5    19    18    1
     6    18     6    1
     7     6     7   ar
     8     7     8   ar
     9     8     5    1
    10     5     1    1
    11     1     2   am
    12     2     3    2
    13     2    24    1
    14    24    25    1
    15    25    26    1
    16    26    27    1
    17    27    28    1
    18    28    29    1
    19    29    30    1
    20    30    33    1
    21    33    34   ar
    22    34    35   ar
    23    35    36   ar
    24    36    37   ar
    25    37    38    1
    26    37    39   ar
    27    39    40    1
    28    30    31    1
    29    31    32    1
    30     8     9   ar
    31     9    10    2
    32     9    11   ar
    33    11    12   ar
    34    12    13   ar
    35    13    14    1
    36    13    15   ar
    37    15    16   ar
    38    16    17   ar
    39    17     6   ar
    40    32    27    1
    41    17    11   ar
    42    39    33   ar
    43     1     4    1
