@<TRIPOS>MOLECULE
*****
 27 29 0 0 0
SMALL
GASTEIGER

@<TRIPOS>ATOM
      1 N         139.0433  138.5395  164.4865 N.am    1  UNL1       -0.2681
      2 C         139.8662  139.7915  164.5601 C.3     1  UNL1        0.1222
      3 C         139.8880  140.2486  165.9886 C.ar    1  UNL1        0.0196
      4 C         139.0786  139.2791  166.7979 C.ar    1  UNL1        0.1319
      5 N         138.9216  139.4833  168.2756 N.ar    1  UNL1       -0.2456
      6 C         139.5739  140.6571  168.9440 C.ar    1  UNL1        0.0568
      7 C         139.4169  140.8613  170.4217 C.3     1  UNL1        0.0518
      8 C         140.3833  141.6266  168.1347 C.ar    1  UNL1        0.0068
      9 C         140.5403  141.4223  166.6570 C.ar    1  UNL1       -0.0015
     10 C         138.5566  138.2228  165.8696 C.2     1  UNL1        0.2668
     11 O         137.6985  137.0549  166.2564 O.2     1  UNL1       -0.2683
     12 C         141.3497  142.3918  165.8476 C.ar    1  UNL1        0.0102
     13 C         142.8419  142.2532  165.7839 C.ar    1  UNL1        0.0017
     14 C         143.6513  143.2227  164.9745 C.ar    1  UNL1        0.0114
     15 C         142.9685  144.3308  164.2290 C.ar    1  UNL1        0.0585
     16 CL        143.7779  145.3003  163.4197 Cl      1  UNL1       -0.0822
     17 C         141.4762  144.4694  164.2928 C.ar    1  UNL1        0.0228
     18 C         140.6668  143.4999  165.1021 C.ar    1  UNL1        0.0585
     19 CL        139.1746  143.6385  165.1659 Cl      1  UNL1       -0.0822
     20 C         141.0356  142.8003  168.8031 C.3     1  UNL1        0.0934
     21 N         140.1954  143.9258  169.3296 N.3     1  UNL1       -0.3174
     22 H         139.7407  144.4035  168.5516 H       1  UNL1        0.1192
     23 H         140.7880  144.5854  169.8339 H       1  UNL1        0.1192
     24 C         138.7573  137.7439  163.2475 C.3     1  UNL1        0.1261
     25 C         139.6970  137.8100  162.0802 C.3     1  UNL1        0.1637
     26 C         142.2807  138.0833  162.0718 C.3     1  UNL1        0.1742
     27 O         141.0672  137.2088  162.1853 O.3     1  UNL1       -0.3493
@<TRIPOS>BOND
     1    26    27    1
     2    27    25    1
     3    25    24    1
     4    24     1    1
     5     1     2    1
     6     2     3    1
     7     3     4   ar
     8     4     5   ar
     9     5     6   ar
    10     6     7    1
    11     6     8   ar
    12     8    20    1
    13    20    21    1
    14     8     9   ar
    15     9    12    1
    16    12    13   ar
    17    13    14   ar
    18    14    15   ar
    19    15    16    1
    20    15    17   ar
    21    17    18   ar
    22    18    19    1
    23     4    10    1
    24    10    11    2
    25    10     1   am
    26     9     3   ar
    27    18    12   ar
    28    21    22    1
    29    21    23    1
@<TRIPOS>MOLECULE
*****
 27 29 0 0 0
SMALL
GASTEIGER

@<TRIPOS>ATOM
      1 N         140.5560  144.0634  163.3657 N.am    1  UNL1       -0.2681
      2 C         140.1416  142.8321  164.1155 C.3     1  UNL1        0.1222
      3 C         141.3502  141.9582  164.2756 C.ar    1  UNL1        0.0196
      4 C         142.5115  142.6494  163.6248 C.ar    1  UNL1        0.1319
      5 N         143.8659  142.0047  163.6284 N.ar    1  UNL1       -0.2456
      6 C         144.0590  140.6688  164.2827 C.ar    1  UNL1        0.0568
      7 C         145.4134  140.0242  164.2863 C.3     1  UNL1        0.0518
      8 C         142.8977  139.9776  164.9335 C.ar    1  UNL1        0.0068
      9 C         141.5433  140.6223  164.9300 C.ar    1  UNL1       -0.0015
     10 C         142.0207  143.9505  163.0625 C.2     1  UNL1        0.2668
     11 O         142.8491  144.9612  162.3261 O.2     1  UNL1       -0.2683
     12 C         140.3819  139.9311  165.5808 C.ar    1  UNL1        0.0102
     13 C         139.6041  138.8966  164.8227 C.ar    1  UNL1        0.0017
     14 C         138.4428  138.2054  165.4735 C.ar    1  UNL1        0.0114
     15 C         138.0593  138.5487  166.8824 C.ar    1  UNL1        0.0585
     16 CL        136.8980  137.8575  167.5332 Cl      1  UNL1       -0.0822
     17 C         138.8371  139.5833  167.6405 C.ar    1  UNL1        0.0228
     18 C         139.9984  140.2745  166.9897 C.ar    1  UNL1        0.0585
     19 CL        140.7762  141.3090  167.7478 Cl      1  UNL1       -0.0822
     20 C         143.0908  138.6418  165.5879 C.3     1  UNL1        0.0934
     21 N         143.4758  138.5644  167.0355 N.3     1  UNL1       -0.3174
     22 H         144.4110  138.9521  167.1598 H       1  UNL1        0.1192
     23 H         143.4687  137.5902  167.3376 H       1  UNL1        0.1192
     24 C         139.6626  145.2069  162.9859 C.3     1  UNL1        0.1261
     25 C         139.9373  145.9904  161.7367 C.3     1  UNL1        0.1637
     26 C         140.7611  145.0339  159.4659 C.3     1  UNL1        0.1742
     27 O         139.6385  145.3912  160.3945 O.3     1  UNL1       -0.3493
@<TRIPOS>BOND
     1    26    27    1
     2    27    25    1
     3    25    24    1
     4    24     1    1
     5     1     2    1
     6     2     3    1
     7     3     4   ar
     8     4     5   ar
     9     5     6   ar
    10     6     7    1
    11     6     8   ar
    12     8    20    1
    13    20    21    1
    14     8     9   ar
    15     9    12    1
    16    12    13   ar
    17    13    14   ar
    18    14    15   ar
    19    15    16    1
    20    15    17   ar
    21    17    18   ar
    22    18    19    1
    23     4    10    1
    24    10    11    2
    25    10     1   am
    26     9     3   ar
    27    18    12   ar
    28    21    22    1
    29    21    23    1
@<TRIPOS>MOLECULE
*****
 27 29 0 0 0
SMALL
GASTEIGER

@<TRIPOS>ATOM
      1 N         140.3330  142.1395  168.7437 N.am    1  UNL1       -0.2681
      2 C         140.1498  142.6839  167.3580 C.3     1  UNL1        0.1222
      3 C         139.8019  141.5397  166.4527 C.ar    1  UNL1        0.0196
      4 C         139.7700  140.2881  167.2788 C.ar    1  UNL1        0.1319
      5 N         139.4463  138.9725  166.6351 N.ar    1  UNL1       -0.2456
      6 C         139.1543  138.9085  165.1651 C.ar    1  UNL1        0.0568
      7 C         138.8305  137.5930  164.5213 C.3     1  UNL1        0.0518
      8 C         139.1861  140.1601  164.3389 C.ar    1  UNL1        0.0068
      9 C         139.5100  141.4757  164.9828 C.ar    1  UNL1       -0.0015
     10 C         140.0983  140.6588  168.6947 C.2     1  UNL1        0.2668
     11 O         140.1778  139.7146  169.8575 O.2     1  UNL1       -0.2683
     12 C         139.5418  142.7273  164.1566 C.ar    1  UNL1        0.0102
     13 C         138.2725  143.4786  163.8842 C.ar    1  UNL1        0.0017
     14 C         138.3043  144.7302  163.0581 C.ar    1  UNL1        0.0114
     15 C         139.6055  145.2305  162.5043 C.ar    1  UNL1        0.0585
     16 CL        139.6374  146.4820  161.6782 Cl      1  UNL1       -0.0822
     17 C         140.8749  144.4791  162.7767 C.ar    1  UNL1        0.0228
     18 C         140.8431  143.2275  163.6029 C.ar    1  UNL1        0.0585
     19 CL        142.1124  142.4761  163.8752 Cl      1  UNL1       -0.0822
     20 C         138.8942  140.0961  162.8690 C.3     1  UNL1        0.0934
     21 N         137.4845  140.2405  162.3775 N.3     1  UNL1       -0.3174
     22 H         136.9301  139.4459  162.6963 H       1  UNL1        0.1192
     23 H         137.4813  140.2701  161.3579 H       1  UNL1        0.1192
     24 C         140.6885  142.9360  169.9640 C.3     1  UNL1        0.1261
     25 C         141.9122  142.5861  170.7579 C.3     1  UNL1        0.1637
     26 C         144.3451  142.5999  169.8464 C.3     1  UNL1        0.1742
     27 O         143.2014  143.3107  170.5073 O.3     1  UNL1       -0.3493
@<TRIPOS>BOND
     1    26    27    1
     2    27    25    1
     3    25    24    1
     4    24     1    1
     5     1     2    1
     6     2     3    1
     7     3     4   ar
     8     4     5   ar
     9     5     6   ar
    10     6     7    1
    11     6     8   ar
    12     8    20    1
    13    20    21    1
    14     8     9   ar
    15     9    12    1
    16    12    13   ar
    17    13    14   ar
    18    14    15   ar
    19    15    16    1
    20    15    17   ar
    21    17    18   ar
    22    18    19    1
    23     4    10    1
    24    10    11    2
    25    10     1   am
    26     9     3   ar
    27    18    12   ar
    28    21    22    1
    29    21    23    1
@<TRIPOS>MOLECULE
*****
 27 29 0 0 0
SMALL
GASTEIGER

@<TRIPOS>ATOM
      1 N         142.6743  141.6212  167.6531 N.am    1  UNL1       -0.2681
      2 C         142.0460  142.2783  166.4601 C.3     1  UNL1        0.1222
      3 C         141.5447  141.1991  165.5469 C.ar    1  UNL1        0.0196
      4 C         141.8632  139.8750  166.1755 C.ar    1  UNL1        0.1319
      5 N         141.4765  138.6028  165.4814 N.ar    1  UNL1       -0.2456
      6 C         140.7711  138.6546  164.1586 C.ar    1  UNL1        0.0568
      7 C         140.3843  137.3824  163.4645 C.3     1  UNL1        0.0518
      8 C         140.4525  139.9787  163.5299 C.ar    1  UNL1        0.0068
      9 C         140.8393  141.2510  164.2241 C.ar    1  UNL1       -0.0015
     10 C         142.5614  140.1359  167.4773 C.2     1  UNL1        0.2668
     11 O         143.0592  139.0943  168.4350 O.2     1  UNL1       -0.2683
     12 C         140.5208  142.5751  163.5954 C.ar    1  UNL1        0.0102
     13 C         141.5318  143.2511  162.7175 C.ar    1  UNL1        0.0017
     14 C         141.2132  144.5753  162.0888 C.ar    1  UNL1        0.0114
     15 C         139.8837  145.2234  162.3381 C.ar    1  UNL1        0.0585
     16 CL        139.5651  146.5475  161.7095 Cl      1  UNL1       -0.0822
     17 C         138.8726  144.5474  163.2161 C.ar    1  UNL1        0.0228
     18 C         139.1911  143.2232  163.8448 C.ar    1  UNL1        0.0585
     19 CL        138.1802  142.5472  164.7228 Cl      1  UNL1       -0.0822
     20 C         139.7472  140.0307  162.2072 C.3     1  UNL1        0.0934
     21 N         138.2482  140.0552  162.1570 N.3     1  UNL1       -0.3174
     22 H         137.8816  139.1718  162.5114 H       1  UNL1        0.1192
     23 H         137.9424  140.1880  161.1930 H       1  UNL1        0.1192
     24 C         143.3049  142.3258  168.8176 C.3     1  UNL1        0.1261
     25 C         142.5520  142.4645  170.1075 C.3     1  UNL1        0.1637
     26 C         140.3890  143.8745  169.8188 C.3     1  UNL1        0.1742
     27 O         141.7674  143.7118  170.3876 O.3     1  UNL1       -0.3493
@<TRIPOS>BOND
     1    26    27    1
     2    27    25    1
     3    25    24    1
     4    24     1    1
     5     1     2    1
     6     2     3    1
     7     3     4   ar
     8     4     5   ar
     9     5     6   ar
    10     6     7    1
    11     6     8   ar
    12     8    20    1
    13    20    21    1
    14     8     9   ar
    15     9    12    1
    16    12    13   ar
    17    13    14   ar
    18    14    15   ar
    19    15    16    1
    20    15    17   ar
    21    17    18   ar
    22    18    19    1
    23     4    10    1
    24    10    11    2
    25    10     1   am
    26     9     3   ar
    27    18    12   ar
    28    21    22    1
    29    21    23    1
@<TRIPOS>MOLECULE
*****
 27 29 0 0 0
SMALL
GASTEIGER

@<TRIPOS>ATOM
      1 N         143.1433  142.2311  165.9798 N.am    1  UNL1       -0.2681
      2 C         142.0158  141.5445  165.2675 C.3     1  UNL1        0.1222
      3 C         141.0577  141.0323  166.3016 C.ar    1  UNL1        0.0196
      4 C         141.5929  141.4022  167.6532 C.ar    1  UNL1        0.1319
      5 N         140.8375  141.0166  168.8903 N.ar    1  UNL1       -0.2456
      6 C         139.5467  140.2611  168.7760 C.ar    1  UNL1        0.0568
      7 C         138.7912  139.8755  170.0131 C.3     1  UNL1        0.0518
      8 C         139.0114  139.8911  167.4245 C.ar    1  UNL1        0.0068
      9 C         139.7669  140.2767  166.1873 C.ar    1  UNL1       -0.0015
     10 C         142.8819  142.1431  167.4542 C.2     1  UNL1        0.2668
     11 O         143.7561  142.6986  168.5393 O.2     1  UNL1       -0.2683
     12 C         139.2316  139.9068  164.8358 C.ar    1  UNL1        0.0102
     13 C         139.6014  138.5913  164.2170 C.ar    1  UNL1        0.0017
     14 C         139.0661  138.2214  162.8655 C.ar    1  UNL1        0.0114
     15 C         138.1611  139.1668  162.1327 C.ar    1  UNL1        0.0585
     16 CL        137.6258  138.7969  160.7812 Cl      1  UNL1       -0.0822
     17 C         137.7913  140.4823  162.7515 C.ar    1  UNL1        0.0228
     18 C         138.3266  140.8523  164.1030 C.ar    1  UNL1        0.0585
     19 CL        137.9569  142.1677  164.7217 Cl      1  UNL1       -0.0822
     20 C         137.7207  139.1356  167.3101 C.3     1  UNL1        0.0934
     21 N         137.7371  137.6518  167.0906 N.3     1  UNL1       -0.3174
     22 H         138.1359  137.4481  166.1742 H       1  UNL1        0.1192
     23 H         136.7840  137.2911  167.1344 H       1  UNL1        0.1192
     24 C         144.3247  142.8899  165.3316 C.3     1  UNL1        0.1261
     25 C         144.6874  142.5537  163.9155 C.3     1  UNL1        0.1637
     26 C         143.7903  144.8587  163.1203 C.3     1  UNL1        0.1742
     27 O         144.5224  143.5810  162.8349 O.3     1  UNL1       -0.3493
@<TRIPOS>BOND
     1    26    27    1
     2    27    25    1
     3    25    24    1
     4    24     1    1
     5     1     2    1
     6     2     3    1
     7     3     4   ar
     8     4     5   ar
     9     5     6   ar
    10     6     7    1
    11     6     8   ar
    12     8    20    1
    13    20    21    1
    14     8     9   ar
    15     9    12    1
    16    12    13   ar
    17    13    14   ar
    18    14    15   ar
    19    15    16    1
    20    15    17   ar
    21    17    18   ar
    22    18    19    1
    23     4    10    1
    24    10    11    2
    25    10     1   am
    26     9     3   ar
    27    18    12   ar
    28    21    22    1
    29    21    23    1
@<TRIPOS>MOLECULE
*****
 27 29 0 0 0
SMALL
GASTEIGER

@<TRIPOS>ATOM
      1 N         140.6142  142.3929  161.7808 N.am    1  UNL1       -0.2681
      2 C         140.1751  141.4634  162.8731 C.3     1  UNL1        0.1222
      3 C         141.3988  140.8167  163.4514 C.ar    1  UNL1        0.0196
      4 C         142.5943  141.3466  162.7164 C.ar    1  UNL1        0.1319
      5 N         143.9699  140.8737  163.0823 N.ar    1  UNL1       -0.2456
      6 C         144.1502  139.8707  164.1831 C.ar    1  UNL1        0.0568
      7 C         145.5258  139.3978  164.5489 C.3     1  UNL1        0.0518
      8 C         142.9547  139.3408  164.9180 C.ar    1  UNL1        0.0068
      9 C         141.5790  139.8138  164.5521 C.ar    1  UNL1       -0.0015
     10 C         142.1093  142.3208  161.6840 C.2     1  UNL1        0.2668
     11 O         142.9687  143.0881  160.7234 O.2     1  UNL1       -0.2683
     12 C         140.3836  139.2839  165.2870 C.ar    1  UNL1        0.0102
     13 C         139.8951  139.9780  166.5237 C.ar    1  UNL1        0.0017
     14 C         138.6997  139.4481  167.2587 C.ar    1  UNL1        0.0114
     15 C         137.9927  138.2240  166.7569 C.ar    1  UNL1        0.0585
     16 CL        136.7973  137.6941  167.4918 Cl      1  UNL1       -0.0822
     17 C         138.4812  137.5298  165.5201 C.ar    1  UNL1        0.0228
     18 C         139.6766  138.0598  164.7851 C.ar    1  UNL1        0.0585
     19 CL        140.1651  137.3656  163.5484 Cl      1  UNL1       -0.0822
     20 C         143.1349  138.3379  166.0188 C.3     1  UNL1        0.0934
     21 N         143.2596  138.7992  167.4406 N.3     1  UNL1       -0.3174
     22 H         144.1230  139.3309  167.5510 H       1  UNL1        0.1192
     23 H         143.2773  137.9894  168.0605 H       1  UNL1        0.1192
     24 C         139.7159  143.2450  160.9341 C.3     1  UNL1        0.1261
     25 C         139.6400  144.7237  161.1741 C.3     1  UNL1        0.1637
     26 C         137.8045  144.3599  162.9765 C.3     1  UNL1        0.1742
     27 O         138.7809  145.2609  162.2801 O.3     1  UNL1       -0.3493
@<TRIPOS>BOND
     1    26    27    1
     2    27    25    1
     3    25    24    1
     4    24     1    1
     5     1     2    1
     6     2     3    1
     7     3     4   ar
     8     4     5   ar
     9     5     6   ar
    10     6     7    1
    11     6     8   ar
    12     8    20    1
    13    20    21    1
    14     8     9   ar
    15     9    12    1
    16    12    13   ar
    17    13    14   ar
    18    14    15   ar
    19    15    16    1
    20    15    17   ar
    21    17    18   ar
    22    18    19    1
    23     4    10    1
    24    10    11    2
    25    10     1   am
    26     9     3   ar
    27    18    12   ar
    28    21    22    1
    29    21    23    1
@<TRIPOS>MOLECULE
*****
 27 29 0 0 0
SMALL
GASTEIGER

@<TRIPOS>ATOM
      1 N         139.0114  139.9877  168.0477 N.am    1  UNL1       -0.2681
      2 C         139.8511  140.8292  167.1331 C.3     1  UNL1        0.1222
      3 C         139.6814  140.3075  165.7370 C.ar    1  UNL1        0.0196
      4 C         138.7367  139.1435  165.7888 C.ar    1  UNL1        0.1319
      5 N         138.3756  138.4140  164.5289 N.ar    1  UNL1       -0.2456
      6 C         138.9591  138.8485  163.2171 C.ar    1  UNL1        0.0568
      7 C         138.5980  138.1190  161.9572 C.3     1  UNL1        0.0518
      8 C         139.9038  140.0125  163.1653 C.ar    1  UNL1        0.0068
      9 C         140.2649  140.7420  164.4253 C.ar    1  UNL1       -0.0015
     10 C         138.3226  138.9459  167.2169 C.2     1  UNL1        0.2668
     11 O         137.3845  137.8915  167.7250 O.2     1  UNL1       -0.2683
     12 C         141.2096  141.9060  164.3734 C.ar    1  UNL1        0.0102
     13 C         140.6808  143.2917  164.1496 C.ar    1  UNL1        0.0017
     14 C         141.6255  144.4557  164.0978 C.ar    1  UNL1        0.0114
     15 C         143.0990  144.2340  164.2698 C.ar    1  UNL1        0.0585
     16 CL        144.0437  145.3980  164.2179 Cl      1  UNL1       -0.0822
     17 C         143.6279  142.8482  164.4936 C.ar    1  UNL1        0.0228
     18 C         142.6832  141.6842  164.5454 C.ar    1  UNL1        0.0585
     19 CL        143.2120  140.2985  164.7692 Cl      1  UNL1       -0.0822
     20 C         140.4874  140.4469  161.8536 C.3     1  UNL1        0.0934
     21 N         139.7776  141.4721  161.0198 N.3     1  UNL1       -0.3174
     22 H         138.8901  141.0897  160.6935 H       1  UNL1        0.1192
     23 H         140.3573  141.7183  160.2174 H       1  UNL1        0.1192
     24 C         138.8829  140.1581  169.5325 C.3     1  UNL1        0.1261
     25 C         139.8580  141.0225  170.2753 C.3     1  UNL1        0.1637
     26 C         140.2921  143.5635  169.9511 C.3     1  UNL1        0.1742
     27 O         139.5121  142.4491  170.5836 O.3     1  UNL1       -0.3493
@<TRIPOS>BOND
     1    26    27    1
     2    27    25    1
     3    25    24    1
     4    24     1    1
     5     1     2    1
     6     2     3    1
     7     3     4   ar
     8     4     5   ar
     9     5     6   ar
    10     6     7    1
    11     6     8   ar
    12     8    20    1
    13    20    21    1
    14     8     9   ar
    15     9    12    1
    16    12    13   ar
    17    13    14   ar
    18    14    15   ar
    19    15    16    1
    20    15    17   ar
    21    17    18   ar
    22    18    19    1
    23     4    10    1
    24    10    11    2
    25    10     1   am
    26     9     3   ar
    27    18    12   ar
    28    21    22    1
    29    21    23    1
@<TRIPOS>MOLECULE
*****
 27 29 0 0 0
SMALL
GASTEIGER

@<TRIPOS>ATOM
      1 N         143.5425  139.0959  164.6449 N.am    1  UNL1       -0.2681
      2 C         142.4057  140.0728  164.7014 C.3     1  UNL1        0.1222
      3 C         142.0329  140.2676  166.1413 C.ar    1  UNL1        0.0196
      4 C         142.9395  139.4110  166.9747 C.ar    1  UNL1        0.1319
      5 N         142.7983  139.4011  168.4679 N.ar    1  UNL1       -0.2456
      6 C         141.7505  140.2477  169.1279 C.ar    1  UNL1        0.0568
      7 C         141.6094  140.2378  170.6212 C.3     1  UNL1        0.0518
      8 C         140.8440  141.1043  168.2945 C.ar    1  UNL1        0.0068
      9 C         140.9852  141.1142  166.8012 C.ar    1  UNL1       -0.0015
     10 C         143.8724  138.6869  166.0498 C.2     1  UNL1        0.2668
     11 O         144.9467  137.7230  166.4583 O.2     1  UNL1       -0.2683
     12 C         140.0787  141.9707  165.9678 C.ar    1  UNL1        0.0102
     13 C         140.4184  143.4122  165.7299 C.ar    1  UNL1        0.0017
     14 C         139.5119  144.2688  164.8966 C.ar    1  UNL1        0.0114
     15 C         138.2656  143.6838  164.3010 C.ar    1  UNL1        0.0585
     16 CL        137.3591  144.5404  163.4677 Cl      1  UNL1       -0.0822
     17 C         137.9259  142.2423  164.5389 C.ar    1  UNL1        0.0228
     18 C         138.8324  141.3857  165.3723 C.ar    1  UNL1        0.0585
     19 CL        138.4927  139.9442  165.6101 Cl      1  UNL1       -0.0822
     20 C         139.7963  141.9509  168.9544 C.3     1  UNL1        0.0934
     21 N         140.1267  143.3468  169.3929 N.3     1  UNL1       -0.3174
     22 H         140.8166  143.3131  170.1434 H       1  UNL1        0.1192
     23 H         139.2807  143.8068  169.7291 H       1  UNL1        0.1192
     24 C         144.2290  138.6129  163.4017 C.3     1  UNL1        0.1261
     25 C         144.2097  139.4534  162.1595 C.3     1  UNL1        0.1637
     26 C         144.4256  141.9727  161.5625 C.3     1  UNL1        0.1742
     27 O         145.0323  140.7057  162.0885 O.3     1  UNL1       -0.3493
@<TRIPOS>BOND
     1    26    27    1
     2    27    25    1
     3    25    24    1
     4    24     1    1
     5     1     2    1
     6     2     3    1
     7     3     4   ar
     8     4     5   ar
     9     5     6   ar
    10     6     7    1
    11     6     8   ar
    12     8    20    1
    13    20    21    1
    14     8     9   ar
    15     9    12    1
    16    12    13   ar
    17    13    14   ar
    18    14    15   ar
    19    15    16    1
    20    15    17   ar
    21    17    18   ar
    22    18    19    1
    23     4    10    1
    24    10    11    2
    25    10     1   am
    26     9     3   ar
    27    18    12   ar
    28    21    22    1
    29    21    23    1
@<TRIPOS>MOLECULE
*****
 27 29 0 0 0
SMALL
GASTEIGER

@<TRIPOS>ATOM
      1 N         139.2880  143.7385  163.3272 N.am    1  UNL1       -0.2681
      2 C         139.8202  142.8372  164.4015 C.3     1  UNL1        0.1222
      3 C         139.4900  141.4230  164.0259 C.ar    1  UNL1        0.0196
      4 C         138.7536  141.4504  162.7193 C.ar    1  UNL1        0.1319
      5 N         138.2919  140.1687  162.0916 N.ar    1  UNL1       -0.2456
      6 C         138.5666  138.8595  162.7705 C.ar    1  UNL1        0.0568
      7 C         138.1049  137.5778  162.1428 C.3     1  UNL1        0.0518
      8 C         139.3029  138.8321  164.0770 C.ar    1  UNL1        0.0068
      9 C         139.7646  140.1139  164.7047 C.ar    1  UNL1       -0.0015
     10 C         138.6288  142.8814  162.2875 C.2     1  UNL1        0.2668
     11 O         137.9619  143.3697  161.0358 O.2     1  UNL1       -0.2683
     12 C         140.5010  140.0866  166.0113 C.ar    1  UNL1        0.0102
     13 C         139.7404  140.1537  167.3024 C.ar    1  UNL1        0.0017
     14 C         140.4768  140.1263  168.6089 C.ar    1  UNL1        0.0114
     15 C         141.9737  140.0318  168.6243 C.ar    1  UNL1        0.0585
     16 CL        142.7100  140.0045  169.9309 Cl      1  UNL1       -0.0822
     17 C         142.7343  139.9647  167.3332 C.ar    1  UNL1        0.0228
     18 C         141.9980  139.9921  166.0267 C.ar    1  UNL1        0.0585
     19 CL        142.7585  139.9250  164.7356 Cl      1  UNL1       -0.0822
     20 C         139.5776  137.5231  164.7559 C.3     1  UNL1        0.0934
     21 N         140.8890  136.8274  164.5409 N.3     1  UNL1       -0.3174
     22 H         140.9621  136.5333  163.5669 H       1  UNL1        0.1192
     23 H         140.9436  136.0096  165.1480 H       1  UNL1        0.1192
     24 C         139.3960  145.2344  163.2976 C.3     1  UNL1        0.1261
     25 C         140.3570  145.8985  162.3568 C.3     1  UNL1        0.1637
     26 C         141.0517  144.8306  160.0925 C.3     1  UNL1        0.1742
     27 O         141.3117  145.0687  161.5505 O.3     1  UNL1       -0.3493
@<TRIPOS>BOND
     1    26    27    1
     2    27    25    1
     3    25    24    1
     4    24     1    1
     5     1     2    1
     6     2     3    1
     7     3     4   ar
     8     4     5   ar
     9     5     6   ar
    10     6     7    1
    11     6     8   ar
    12     8    20    1
    13    20    21    1
    14     8     9   ar
    15     9    12    1
    16    12    13   ar
    17    13    14   ar
    18    14    15   ar
    19    15    16    1
    20    15    17   ar
    21    17    18   ar
    22    18    19    1
    23     4    10    1
    24    10    11    2
    25    10     1   am
    26     9     3   ar
    27    18    12   ar
    28    21    22    1
    29    21    23    1
