@<TRIPOS>MOLECULE
*****
 27 30 0 0 0
SMALL
GASTEIGER

@<TRIPOS>ATOM
      1 C         140.8234  139.4814  165.1900 C.ar    1  UNL1        0.1547
      2 C         140.5353  138.9882  163.8030 C.ar    1  UNL1        0.0384
      3 C         141.6561  138.5046  162.9312 C.ar    1  UNL1        0.0034
      4 C         143.0649  138.5143  163.4463 C.ar    1  UNL1        0.0017
      5 C         143.3529  139.0076  164.8333 C.ar    1  UNL1        0.0206
      6 C         142.2321  139.4911  165.7051 C.ar    1  UNL1        0.0994
      7 N         142.5200  139.9844  167.0921 N.ar    1  UNL1       -0.2839
      8 C         142.6740  139.1320  168.3168 C.ar    1  UNL1        0.1826
      9 N         142.9537  140.0374  169.4796 N.ar    1  UNL1       -0.2280
     10 C         142.9725  141.4494  168.9735 C.ar    1  UNL1        0.0786
     11 C         143.2166  142.6783  169.7982 C.3     1  UNL1        0.0538
     12 C         142.7045  141.4166  167.4981 C.ar    1  UNL1        0.0963
     13 C         138.3241  139.3978  165.8947 C.3     1  UNL1        0.2525
     14 O         139.7026  139.9650  166.0619 O.3     1  UNL1       -0.4700
     15 C         141.3682  138.0113  161.5442 C.2     1  UNL1        0.0079
     16 C         142.1917  138.4984  160.3890 C.2     1  UNL1        0.0937
     17 C         141.9037  138.0051  159.0019 C.2     1  UNL1        0.3699
     18 N         142.9720  137.2997  158.2199 N.2     1  UNL1       -0.0293
     19 C         142.6840  136.8064  156.8329 C.2     1  UNL1        0.2254
     20 S         143.5315  136.0827  155.8290 S.3     1  UNL1       -0.0636
     21 C         142.6992  135.8476  154.6034 C.3     1  UNL1        0.0881
     22 C         141.3373  136.4259  154.8500 C.2     1  UNL1       -0.0218
     23 C         140.1869  136.4138  153.8876 C.3     1  UNL1        0.0276
     24 C         141.3280  137.0185  156.2279 C.2     1  UNL1        0.1240
     25 C         140.2598  137.7239  157.0099 C.2     1  UNL1        0.3791
     26 O         138.9037  137.9361  156.4049 O.2     1  UNL1       -0.2376
     27 N         140.5478  138.2172  158.3969 N.am    1  UNL1        0.0364
@<TRIPOS>BOND
     1    13    14    1
     2    14     1    1
     3     1     2   ar
     4     2     3   ar
     5     3    15    1
     6    15    16    2
     7    16    17    1
     8    17    18    1
     9    18    19    2
    10    19    20    1
    11    20    21    1
    12    21    22    1
    13    22    23    1
    14    22    24    2
    15    24    25    1
    16    25    26    2
    17    25    27    1
    18     3     4   ar
    19     4     5   ar
    20     5     6   ar
    21     6     7    1
    22     7     8   ar
    23     8     9   ar
    24     9    10   ar
    25    10    11    1
    26    10    12   ar
    27     6     1   ar
    28    12     7   ar
    29    27    17    2
    30    24    19    1
@<TRIPOS>MOLECULE
*****
 27 30 0 0 0
SMALL
GASTEIGER

@<TRIPOS>ATOM
      1 C         140.0698  137.4297  156.8582 C.ar    1  UNL1        0.1547
      2 C         139.9223  138.3318  158.0475 C.ar    1  UNL1        0.0384
      3 C         141.1162  138.6554  158.8960 C.ar    1  UNL1        0.0034
      4 C         142.4576  138.0769  158.5552 C.ar    1  UNL1        0.0017
      5 C         142.6050  137.1748  157.3659 C.ar    1  UNL1        0.0206
      6 C         141.4112  136.8512  156.5174 C.ar    1  UNL1        0.0994
      7 N         141.5586  135.9492  155.3281 N.ar    1  UNL1       -0.2839
      8 C         141.7803  136.3878  153.9108 C.ar    1  UNL1        0.1826
      9 N         141.8690  135.1598  153.0540 N.ar    1  UNL1       -0.2280
     10 C         141.7020  133.9623  153.9416 C.ar    1  UNL1        0.0786
     11 C         141.7232  132.5286  153.5011 C.3     1  UNL1        0.0538
     12 C         141.5102  134.4500  155.3470 C.ar    1  UNL1        0.0963
     13 C         138.5043  138.0018  154.8653 C.3     1  UNL1        0.2525
     14 O         138.8760  137.1061  156.0097 O.3     1  UNL1       -0.4700
     15 C         140.9688  139.5574  160.0853 C.2     1  UNL1        0.0079
     16 C         139.6760  140.2802  160.3228 C.2     1  UNL1        0.0937
     17 C         139.5285  141.1823  161.5122 C.2     1  UNL1        0.3699
     18 N         140.2288  140.8504  162.7966 N.2     1  UNL1       -0.0293
     19 C         140.0813  141.7525  163.9859 C.2     1  UNL1        0.2254
     20 S         140.6468  141.6843  165.3736 S.3     1  UNL1       -0.0636
     21 C         140.1486  142.8761  166.1361 C.3     1  UNL1        0.0881
     22 C         139.2752  143.6808  165.2198 C.2     1  UNL1       -0.0218
     23 C         138.5677  144.9560  165.5707 C.3     1  UNL1        0.0276
     24 C         139.2336  142.9864  163.8908 C.2     1  UNL1        0.1240
     25 C         138.5335  143.3182  162.6064 C.2     1  UNL1        0.3791
     26 O         137.6858  144.5521  162.5114 O.2     1  UNL1       -0.2376
     27 N         138.6809  142.4161  161.4171 N.am    1  UNL1        0.0364
@<TRIPOS>BOND
     1    13    14    1
     2    14     1    1
     3     1     2   ar
     4     2     3   ar
     5     3    15    1
     6    15    16    2
     7    16    17    1
     8    17    18    1
     9    18    19    2
    10    19    20    1
    11    20    21    1
    12    21    22    1
    13    22    23    1
    14    22    24    2
    15    24    25    1
    16    25    26    2
    17    25    27    1
    18     3     4   ar
    19     4     5   ar
    20     5     6   ar
    21     6     7    1
    22     7     8   ar
    23     8     9   ar
    24     9    10   ar
    25    10    11    1
    26    10    12   ar
    27     6     1   ar
    28    12     7   ar
    29    27    17    2
    30    24    19    1
@<TRIPOS>MOLECULE
*****
 27 30 0 0 0
SMALL
GASTEIGER

@<TRIPOS>ATOM
      1 C         142.8541  135.7167  156.7265 C.ar    1  UNL1        0.1547
      2 C         142.9869  136.8162  157.7381 C.ar    1  UNL1        0.0384
      3 C         141.9215  137.8663  157.8486 C.ar    1  UNL1        0.0034
      4 C         140.7232  137.8169  156.9475 C.ar    1  UNL1        0.0017
      5 C         140.5905  136.7174  155.9359 C.ar    1  UNL1        0.0206
      6 C         141.6559  135.6673  155.8254 C.ar    1  UNL1        0.0994
      7 N         141.5231  134.5677  154.8138 N.ar    1  UNL1       -0.2839
      8 C         141.7313  134.7010  153.3342 C.ar    1  UNL1        0.1826
      9 N         141.4958  133.3575  152.7101 N.ar    1  UNL1       -0.2280
     10 C         141.1420  132.3939  153.8039 C.ar    1  UNL1        0.0786
     11 C         140.8266  130.9380  153.6284 C.3     1  UNL1        0.0538
     12 C         141.1589  133.1418  155.1040 C.ar    1  UNL1        0.0963
     13 C         144.0045  133.5739  157.6399 C.3     1  UNL1        0.2525
     14 O         143.9195  134.6666  156.6158 O.3     1  UNL1       -0.4700
     15 C         142.0542  138.9659  158.8602 C.2     1  UNL1        0.0079
     16 C         143.4137  139.4615  159.2551 C.2     1  UNL1        0.0937
     17 C         143.5465  140.5611  160.2668 C.2     1  UNL1        0.3699
     18 N         144.2722  140.3109  161.5556 N.2     1  UNL1       -0.0293
     19 C         144.4050  141.4104  162.5672 C.2     1  UNL1        0.2254
     20 S         145.0596  141.4597  163.9159 S.3     1  UNL1       -0.0636
     21 C         144.8712  142.8399  164.4723 C.3     1  UNL1        0.0881
     22 C         144.1002  143.6436  163.4675 C.2     1  UNL1       -0.0218
     23 C         143.6895  145.0788  163.6144 C.3     1  UNL1        0.0276
     24 C         143.8121  142.7601  162.2900 C.2     1  UNL1        0.1240
     25 C         143.0864  143.0103  161.0013 C.2     1  UNL1        0.3791
     26 O         142.4935  144.3600  160.7242 O.2     1  UNL1       -0.2376
     27 N         142.9537  141.9107  159.9897 N.am    1  UNL1        0.0364
@<TRIPOS>BOND
     1    13    14    1
     2    14     1    1
     3     1     2   ar
     4     2     3   ar
     5     3    15    1
     6    15    16    2
     7    16    17    1
     8    17    18    1
     9    18    19    2
    10    19    20    1
    11    20    21    1
    12    21    22    1
    13    22    23    1
    14    22    24    2
    15    24    25    1
    16    25    26    2
    17    25    27    1
    18     3     4   ar
    19     4     5   ar
    20     5     6   ar
    21     6     7    1
    22     7     8   ar
    23     8     9   ar
    24     9    10   ar
    25    10    11    1
    26    10    12   ar
    27     6     1   ar
    28    12     7   ar
    29    27    17    2
    30    24    19    1
@<TRIPOS>MOLECULE
*****
 27 30 0 0 0
SMALL
GASTEIGER

@<TRIPOS>ATOM
      1 C         141.2203  139.6674  164.6877 C.ar    1  UNL1        0.1547
      2 C         141.1514  139.0534  163.3209 C.ar    1  UNL1        0.0384
      3 C         142.4081  138.6028  162.6370 C.ar    1  UNL1        0.0034
      4 C         143.7337  138.7662  163.3199 C.ar    1  UNL1        0.0017
      5 C         143.8025  139.3803  164.6867 C.ar    1  UNL1        0.0206
      6 C         142.5458  139.8308  165.3706 C.ar    1  UNL1        0.0994
      7 N         142.6145  140.4449  166.7374 N.ar    1  UNL1       -0.2839
      8 C         142.7858  141.9039  167.0410 C.ar    1  UNL1        0.1826
      9 N         142.8012  142.0685  168.5318 N.ar    1  UNL1       -0.2280
     10 C         142.6395  140.7112  169.1497 C.ar    1  UNL1        0.0786
     11 C         142.6001  140.4103  170.6187 C.3     1  UNL1        0.0538
     12 C         142.5242  139.7079  168.0408 C.ar    1  UNL1        0.0963
     13 C         139.1506  139.1400  166.1670 C.3     1  UNL1        0.2525
     14 O         139.9636  140.1180  165.3717 O.3     1  UNL1       -0.4700
     15 C         142.3393  137.9888  161.2702 C.2     1  UNL1        0.0079
     16 C         141.7997  138.7827  160.1176 C.2     1  UNL1        0.0937
     17 C         141.7309  138.1687  158.7507 C.2     1  UNL1        0.3699
     18 N         140.4178  138.0881  158.0300 N.2     1  UNL1       -0.0293
     19 C         140.3491  137.4740  156.6631 C.2     1  UNL1        0.2254
     20 S         139.2058  137.2574  155.7165 S.3     1  UNL1       -0.0636
     21 C         139.7435  136.5902  154.4854 C.3     1  UNL1        0.0881
     22 C         141.2190  136.3944  154.6711 C.2     1  UNL1       -0.0218
     23 C         142.1558  135.7632  153.6842 C.3     1  UNL1        0.0276
     24 C         141.5933  136.9407  156.0171 C.2     1  UNL1        0.1240
     25 C         142.9063  137.0213  156.7378 C.2     1  UNL1        0.3791
     26 O         144.1505  136.4880  156.0918 O.2     1  UNL1       -0.2376
     27 N         142.9751  137.6353  158.1046 N.am    1  UNL1        0.0364
@<TRIPOS>BOND
     1    13    14    1
     2    14     1    1
     3     1     2   ar
     4     2     3   ar
     5     3    15    1
     6    15    16    2
     7    16    17    1
     8    17    18    1
     9    18    19    2
    10    19    20    1
    11    20    21    1
    12    21    22    1
    13    22    23    1
    14    22    24    2
    15    24    25    1
    16    25    26    2
    17    25    27    1
    18     3     4   ar
    19     4     5   ar
    20     5     6   ar
    21     6     7    1
    22     7     8   ar
    23     8     9   ar
    24     9    10   ar
    25    10    11    1
    26    10    12   ar
    27     6     1   ar
    28    12     7   ar
    29    27    17    2
    30    24    19    1
@<TRIPOS>MOLECULE
*****
 27 30 0 0 0
SMALL
GASTEIGER

@<TRIPOS>ATOM
      1 C         143.3612  139.8986  164.3256 C.ar    1  UNL1        0.1547
      2 C         143.1868  139.2518  162.9835 C.ar    1  UNL1        0.0384
      3 C         141.8764  138.6183  162.6209 C.ar    1  UNL1        0.0034
      4 C         140.7404  138.6314  163.6005 C.ar    1  UNL1        0.0017
      5 C         140.9148  139.2782  164.9426 C.ar    1  UNL1        0.0206
      6 C         142.2252  139.9117  165.3052 C.ar    1  UNL1        0.0994
      7 N         142.3997  140.5585  166.6473 N.ar    1  UNL1       -0.2839
      8 C         142.3168  142.0283  166.9352 C.ar    1  UNL1        0.1826
      9 N         142.5536  142.2272  168.4029 N.ar    1  UNL1       -0.2280
     10 C         142.7827  140.8804  169.0222 C.ar    1  UNL1        0.0786
     11 C         143.0586  140.6120  170.4719 C.3     1  UNL1        0.0538
     12 C         142.6876  139.8491  167.9372 C.ar    1  UNL1        0.0963
     13 C         145.4798  141.2365  163.6392 C.3     1  UNL1        0.2525
     14 O         144.6715  140.5322  164.6883 O.3     1  UNL1       -0.4700
     15 C         141.7019  137.9715  161.2788 C.2     1  UNL1        0.0079
     16 C         141.8688  138.7826  160.0281 C.2     1  UNL1        0.0937
     17 C         141.6943  138.1358  158.6859 C.2     1  UNL1        0.3699
     18 N         142.8686  137.5024  158.0003 N.2     1  UNL1       -0.0293
     19 C         142.6941  136.8556  156.6582 C.2     1  UNL1        0.2254
     20 S         143.6598  136.1568  155.7477 S.3     1  UNL1       -0.0636
     21 C         142.9080  135.7116  154.5285 C.3     1  UNL1        0.0881
     22 C         141.4777  136.1353  154.6854 C.2     1  UNL1       -0.0218
     23 C         140.3734  135.8943  153.6992 C.3     1  UNL1        0.0276
     24 C         141.3455  136.8424  156.0017 C.2     1  UNL1        0.1240
     25 C         140.1713  137.4758  156.6873 C.2     1  UNL1        0.3791
     26 O         138.8227  137.4626  156.0308 O.2     1  UNL1       -0.2376
     27 N         140.3458  138.1226  158.0294 N.am    1  UNL1        0.0364
@<TRIPOS>BOND
     1    13    14    1
     2    14     1    1
     3     1     2   ar
     4     2     3   ar
     5     3    15    1
     6    15    16    2
     7    16    17    1
     8    17    18    1
     9    18    19    2
    10    19    20    1
    11    20    21    1
    12    21    22    1
    13    22    23    1
    14    22    24    2
    15    24    25    1
    16    25    26    2
    17    25    27    1
    18     3     4   ar
    19     4     5   ar
    20     5     6   ar
    21     6     7    1
    22     7     8   ar
    23     8     9   ar
    24     9    10   ar
    25    10    11    1
    26    10    12   ar
    27     6     1   ar
    28    12     7   ar
    29    27    17    2
    30    24    19    1
@<TRIPOS>MOLECULE
*****
 27 30 0 0 0
SMALL
GASTEIGER

@<TRIPOS>ATOM
      1 C         141.1564  140.6467  164.3157 C.ar    1  UNL1        0.1547
      2 C         141.0784  140.0613  162.9369 C.ar    1  UNL1        0.0384
      3 C         141.4485  138.6255  162.7098 C.ar    1  UNL1        0.0034
      4 C         141.8965  137.7751  163.8615 C.ar    1  UNL1        0.0017
      5 C         141.9744  138.3606  165.2403 C.ar    1  UNL1        0.0206
      6 C         141.6043  139.7964  165.4674 C.ar    1  UNL1        0.0994
      7 N         141.6822  140.3820  166.8462 N.ar    1  UNL1       -0.2839
      8 C         140.6537  140.2310  167.9276 C.ar    1  UNL1        0.1826
      9 N         141.1381  140.9770  169.1354 N.ar    1  UNL1       -0.2280
     10 C         142.4659  141.5890  168.8005 C.ar    1  UNL1        0.0786
     11 C         143.3094  142.4224  169.7191 C.3     1  UNL1        0.0538
     12 C         142.8022  141.2213  167.3858 C.ar    1  UNL1        0.0963
     13 C         139.3861  142.4417  164.9434 C.3     1  UNL1        0.2525
     14 O         140.7863  142.0825  164.5429 O.3     1  UNL1       -0.4700
     15 C         141.3706  138.0399  161.3310 C.2     1  UNL1        0.0079
     16 C         141.8413  138.8364  160.1503 C.2     1  UNL1        0.0937
     17 C         141.7635  138.2508  158.7714 C.2     1  UNL1        0.3699
     18 N         140.4397  138.1500  158.0731 N.2     1  UNL1       -0.0293
     19 C         140.3618  137.5645  156.6943 C.2     1  UNL1        0.2254
     20 S         139.2072  137.3373  155.7641 S.3     1  UNL1       -0.0636
     21 C         139.7395  136.7123  154.5087 C.3     1  UNL1        0.0881
     22 C         141.2230  136.5532  154.6630 C.2     1  UNL1       -0.0218
     23 C         142.1578  135.9698  153.6453 C.3     1  UNL1        0.0276
     24 C         141.6076  137.0798  156.0139 C.2     1  UNL1        0.1240
     25 C         142.9313  137.1807  156.7122 C.2     1  UNL1        0.3791
     26 O         144.1772  136.6961  156.0317 O.2     1  UNL1       -0.2376
     27 N         143.0092  137.7662  158.0910 N.am    1  UNL1        0.0364
@<TRIPOS>BOND
     1    13    14    1
     2    14     1    1
     3     1     2   ar
     4     2     3   ar
     5     3    15    1
     6    15    16    2
     7    16    17    1
     8    17    18    1
     9    18    19    2
    10    19    20    1
    11    20    21    1
    12    21    22    1
    13    22    23    1
    14    22    24    2
    15    24    25    1
    16    25    26    2
    17    25    27    1
    18     3     4   ar
    19     4     5   ar
    20     5     6   ar
    21     6     7    1
    22     7     8   ar
    23     8     9   ar
    24     9    10   ar
    25    10    11    1
    26    10    12   ar
    27     6     1   ar
    28    12     7   ar
    29    27    17    2
    30    24    19    1
@<TRIPOS>MOLECULE
*****
 27 30 0 0 0
SMALL
GASTEIGER

@<TRIPOS>ATOM
      1 C         143.6964  139.8765  161.3379 C.ar    1  UNL1        0.1547
      2 C         143.5909  138.6016  160.5547 C.ar    1  UNL1        0.0384
      3 C         142.9526  138.6060  159.1973 C.ar    1  UNL1        0.0034
      4 C         142.4199  139.8854  158.6230 C.ar    1  UNL1        0.0017
      5 C         142.5255  141.1602  159.4063 C.ar    1  UNL1        0.0206
      6 C         143.1638  141.1558  160.7637 C.ar    1  UNL1        0.0994
      7 N         143.2694  142.4307  161.5470 N.ar    1  UNL1       -0.2839
      8 C         144.5129  143.2476  161.7382 C.ar    1  UNL1        0.1826
      9 N         144.1622  144.4343  162.5859 N.ar    1  UNL1       -0.2280
     10 C         142.7019  144.3508  162.9187 C.ar    1  UNL1        0.0786
     11 C         141.9291  145.3332  163.7479 C.3     1  UNL1        0.0538
     12 C         142.1502  143.1126  162.2766 C.ar    1  UNL1        0.0963
     13 C         143.5002  139.6182  163.9156 C.3     1  UNL1        0.2525
     14 O         144.3347  139.8722  162.6953 O.3     1  UNL1       -0.4700
     15 C         142.8470  137.3312  158.4140 C.2     1  UNL1        0.0079
     16 C         142.8976  137.3654  156.9153 C.2     1  UNL1        0.0937
     17 C         142.7920  136.0904  156.1319 C.2     1  UNL1        0.3699
     18 N         143.6045  134.8947  156.5322 N.2     1  UNL1       -0.0293
     19 C         143.4989  133.6199  155.7490 C.2     1  UNL1        0.2254
     20 S         144.1708  132.2878  155.9044 S.3     1  UNL1       -0.0636
     21 C         143.6679  131.3854  154.8169 C.3     1  UNL1        0.0881
     22 C         142.6852  132.1596  153.9894 C.2     1  UNL1       -0.0218
     23 C         141.9381  131.6435  152.7955 C.3     1  UNL1        0.0276
     24 C         142.5807  133.5407  154.5654 C.2     1  UNL1        0.1240
     25 C         141.7682  134.7363  154.1652 C.2     1  UNL1        0.3791
     26 O         140.8501  134.6571  152.9817 O.2     1  UNL1       -0.2376
     27 N         141.8739  136.0112  154.9485 N.am    1  UNL1        0.0364
@<TRIPOS>BOND
     1    13    14    1
     2    14     1    1
     3     1     2   ar
     4     2     3   ar
     5     3    15    1
     6    15    16    2
     7    16    17    1
     8    17    18    1
     9    18    19    2
    10    19    20    1
    11    20    21    1
    12    21    22    1
    13    22    23    1
    14    22    24    2
    15    24    25    1
    16    25    26    2
    17    25    27    1
    18     3     4   ar
    19     4     5   ar
    20     5     6   ar
    21     6     7    1
    22     7     8   ar
    23     8     9   ar
    24     9    10   ar
    25    10    11    1
    26    10    12   ar
    27     6     1   ar
    28    12     7   ar
    29    27    17    2
    30    24    19    1
@<TRIPOS>MOLECULE
*****
 27 30 0 0 0
SMALL
GASTEIGER

@<TRIPOS>ATOM
      1 C         141.7643  143.3467  159.9660 C.ar    1  UNL1        0.1547
      2 C         141.9577  142.7489  161.3280 C.ar    1  UNL1        0.0384
      3 C         141.4967  143.4930  162.5460 C.ar    1  UNL1        0.0034
      4 C         140.8422  144.8351  162.4021 C.ar    1  UNL1        0.0017
      5 C         140.6489  145.4329  161.0401 C.ar    1  UNL1        0.0206
      6 C         141.1099  144.6887  159.8220 C.ar    1  UNL1        0.0994
      7 N         140.9165  145.2866  158.4600 N.ar    1  UNL1       -0.2839
      8 C         141.9868  145.8986  157.6056 C.ar    1  UNL1        0.1826
      9 N         141.3507  146.3676  156.3307 N.ar    1  UNL1       -0.2280
     10 C         139.8872  146.0454  156.3971 C.ar    1  UNL1        0.0786
     11 C         138.8706  146.3397  155.3342 C.3     1  UNL1        0.0538
     12 C         139.6189  145.3773  157.7129 C.ar    1  UNL1        0.0963
     13 C         143.6797  142.5924  158.3811 C.3     1  UNL1        0.2525
     14 O         142.2253  142.6026  158.7479 O.3     1  UNL1       -0.4700
     15 C         141.6901  142.8952  163.9081 C.2     1  UNL1        0.0079
     16 C         141.6060  141.4092  164.0937 C.2     1  UNL1        0.0937
     17 C         141.7994  140.8113  165.4558 C.2     1  UNL1        0.3699
     18 N         141.0091  141.3287  166.6211 N.2     1  UNL1       -0.0293
     19 C         141.2025  140.7308  167.9831 C.2     1  UNL1        0.2254
     20 S         140.5707  141.0313  169.3100 S.3     1  UNL1       -0.0636
     21 C         141.1640  140.1018  170.3269 C.3     1  UNL1        0.0881
     22 C         142.1624  139.2269  169.6285 C.2     1  UNL1       -0.0218
     23 C         142.9914  138.1519  170.2666 C.3     1  UNL1        0.0276
     24 C         142.1862  139.6157  168.1799 C.2     1  UNL1        0.1240
     25 C         142.9764  139.0983  167.0147 C.2     1  UNL1        0.3791
     26 O         143.9601  137.9831  167.2115 O.2     1  UNL1       -0.2376
     27 N         142.7830  139.6962  165.6527 N.am    1  UNL1        0.0364
@<TRIPOS>BOND
     1    13    14    1
     2    14     1    1
     3     1     2   ar
     4     2     3   ar
     5     3    15    1
     6    15    16    2
     7    16    17    1
     8    17    18    1
     9    18    19    2
    10    19    20    1
    11    20    21    1
    12    21    22    1
    13    22    23    1
    14    22    24    2
    15    24    25    1
    16    25    26    2
    17    25    27    1
    18     3     4   ar
    19     4     5   ar
    20     5     6   ar
    21     6     7    1
    22     7     8   ar
    23     8     9   ar
    24     9    10   ar
    25    10    11    1
    26    10    12   ar
    27     6     1   ar
    28    12     7   ar
    29    27    17    2
    30    24    19    1
@<TRIPOS>MOLECULE
*****
 27 30 0 0 0
SMALL
GASTEIGER

@<TRIPOS>ATOM
      1 C         145.9065  141.2225  155.9769 C.ar    1  UNL1        0.1547
      2 C         144.9099  141.4124  157.0818 C.ar    1  UNL1        0.0384
      3 C         145.2234  142.3321  158.2245 C.ar    1  UNL1        0.0034
      4 C         146.5334  143.0619  158.2624 C.ar    1  UNL1        0.0017
      5 C         147.5299  142.8719  157.1575 C.ar    1  UNL1        0.0206
      6 C         147.2165  141.9522  156.0148 C.ar    1  UNL1        0.0994
      7 N         148.2130  141.7622  154.9099 N.ar    1  UNL1       -0.2839
      8 C         147.9308  141.8670  153.4403 C.ar    1  UNL1        0.1826
      9 N         149.2100  141.6036  152.7027 N.ar    1  UNL1       -0.2280
     10 C         150.2829  141.3360  153.7163 C.ar    1  UNL1        0.0786
     11 C         151.7197  141.0250  153.4182 C.3     1  UNL1        0.0538
     12 C         149.6667  141.4340  155.0803 C.ar    1  UNL1        0.0963
     13 C         145.0607  138.9265  155.1034 C.3     1  UNL1        0.2525
     14 O         145.5931  140.3027  154.8341 O.3     1  UNL1       -0.4700
     15 C         144.2269  142.5221  159.3294 C.2     1  UNL1        0.0079
     16 C         143.0530  143.4349  159.1319 C.2     1  UNL1        0.0937
     17 C         142.0564  143.6249  160.2369 C.2     1  UNL1        0.3699
     18 N         140.7089  142.9714  160.1520 N.2     1  UNL1       -0.0293
     19 C         139.7124  143.1614  161.2569 C.2     1  UNL1        0.2254
     20 S         138.3168  142.6463  161.4494 S.3     1  UNL1       -0.0636
     21 C         137.8053  143.1714  162.7580 C.3     1  UNL1        0.0881
     22 C         138.8847  144.0110  163.3744 C.2     1  UNL1       -0.0218
     23 C         138.8003  144.7305  164.6878 C.3     1  UNL1        0.0276
     24 C         140.0634  144.0049  162.4466 C.2     1  UNL1        0.1240
     25 C         141.4109  144.6583  162.5314 C.2     1  UNL1        0.3791
     26 O         141.7619  145.5018  163.7211 O.2     1  UNL1       -0.2376
     27 N         142.4074  144.4683  161.4265 N.am    1  UNL1        0.0364
@<TRIPOS>BOND
     1    13    14    1
     2    14     1    1
     3     1     2   ar
     4     2     3   ar
     5     3    15    1
     6    15    16    2
     7    16    17    1
     8    17    18    1
     9    18    19    2
    10    19    20    1
    11    20    21    1
    12    21    22    1
    13    22    23    1
    14    22    24    2
    15    24    25    1
    16    25    26    2
    17    25    27    1
    18     3     4   ar
    19     4     5   ar
    20     5     6   ar
    21     6     7    1
    22     7     8   ar
    23     8     9   ar
    24     9    10   ar
    25    10    11    1
    26    10    12   ar
    27     6     1   ar
    28    12     7   ar
    29    27    17    2
    30    24    19    1
