@<TRIPOS>MOLECULE
*****
 26 28 0 0 0
SMALL
GASTEIGER

@<TRIPOS>ATOM
      1 C         140.8031  144.6636  163.4392 C.3     1  UNL1        0.0716
      2 C         139.5507  144.8339  164.2472 C.3     1  UNL1        0.0199
      3 C         139.3516  144.0331  165.4998 C.3     1  UNL1        0.0060
      4 C         140.4049  143.0621  165.9445 C.3     1  UNL1        0.0224
      5 C         141.6572  142.8918  165.1367 C.3     1  UNL1        0.0060
      6 C         141.8563  143.6926  163.8840 C.3     1  UNL1        0.0199
      7 C         140.2058  142.2613  167.1971 C.ar    1  UNL1       -0.0223
      8 C         140.4309  142.8966  168.5372 C.ar    1  UNL1       -0.0012
      9 C         140.2318  142.0958  169.7898 C.ar    1  UNL1        0.0363
     10 C         139.8076  140.6597  169.7025 C.ar    1  UNL1        0.1337
     11 O         139.6085  139.8589  170.9552 O.3     1  UNL1       -0.5055
     12 C         139.5825  140.0244  168.3625 C.ar    1  UNL1        0.0363
     13 C         139.7816  140.8252  167.1098 C.ar    1  UNL1       -0.0012
     14 H         139.7492  140.2558  171.7922 H       1  UNL1        0.2922
     15 O         139.2999  143.9446  160.9446 O.2     1  UNL1       -0.2751
     16 C         140.2506  145.1049  160.9393 C.2     1  UNL1        0.2228
     17 N         141.0021  145.4644  162.1866 N.am    1  UNL1       -0.3060
     18 H         141.6261  146.2260  162.1832 H       1  UNL1        0.1494
     19 C         140.4496  145.9057  159.6866 C.3     1  UNL1        0.0897
     20 C         141.3387  145.3846  158.5967 C.3     1  UNL1        0.0359
     21 C         141.0503  145.7278  157.1652 C.ar    1  UNL1       -0.0217
     22 C         141.9740  145.2582  156.0807 C.ar    1  UNL1       -0.0043
     23 C         141.6856  145.6013  154.6492 C.ar    1  UNL1       -0.0003
     24 C         140.4735  146.4140  154.3023 C.ar    1  UNL1       -0.0000
     25 C         139.5498  146.8836  155.3869 C.ar    1  UNL1       -0.0003
     26 C         139.8382  146.5405  156.8183 C.ar    1  UNL1       -0.0043
@<TRIPOS>BOND
     1    15    16    2
     2    16    19    1
     3    19    20    1
     4    20    21    1
     5    21    22   ar
     6    22    23   ar
     7    23    24   ar
     8    24    25   ar
     9    25    26   ar
    10    16    17   am
    11     1    17    1
    12     1     2    1
    13     2     3    1
    14     3     4    1
    15     4     7    1
    16     7     8   ar
    17     8     9   ar
    18     9    10   ar
    19    10    11    1
    20    10    12   ar
    21    12    13   ar
    22     4     5    1
    23     5     6    1
    24    26    21   ar
    25     6     1    1
    26    13     7   ar
    27    17    18    1
    28    11    14    1
@<TRIPOS>MOLECULE
*****
 26 28 0 0 0
SMALL
GASTEIGER

@<TRIPOS>ATOM
      1 C         140.8762  144.6168  163.5126 C.3     1  UNL1        0.0716
      2 C         139.6353  144.8318  164.3275 C.3     1  UNL1        0.0199
      3 C         139.4087  144.0297  165.5746 C.3     1  UNL1        0.0060
      4 C         140.4230  143.0125  166.0067 C.3     1  UNL1        0.0224
      5 C         141.6638  142.7975  165.1919 C.3     1  UNL1        0.0060
      6 C         141.8904  143.5997  163.9447 C.3     1  UNL1        0.0199
      7 C         140.1964  142.2104  167.2538 C.ar    1  UNL1       -0.0223
      8 C         139.7597  140.7787  167.1557 C.ar    1  UNL1       -0.0012
      9 C         139.5331  139.9765  168.4027 C.ar    1  UNL1        0.0363
     10 C         139.7432  140.6060  169.7479 C.ar    1  UNL1        0.1337
     11 O         139.5166  139.8038  170.9950 O.3     1  UNL1       -0.5055
     12 C         140.1798  142.0377  169.8461 C.ar    1  UNL1        0.0363
     13 C         140.4064  142.8399  168.5990 C.ar    1  UNL1       -0.0012
     14 H         139.2438  138.9095  170.9337 H       1  UNL1        0.2922
     15 O         139.2593  144.0500  161.0501 O.2     1  UNL1       -0.2751
     16 C         140.2943  145.1355  161.0343 C.2     1  UNL1        0.2228
     17 N         141.1028  145.4190  162.2655 N.am    1  UNL1       -0.3060
     18 H         141.7821  146.1315  162.2551 H       1  UNL1        0.1494
     19 C         140.5209  145.9377  159.7871 C.3     1  UNL1        0.0897
     20 C         140.8802  145.2461  158.5055 C.3     1  UNL1        0.0359
     21 C         139.9468  145.3077  157.3328 C.ar    1  UNL1       -0.0217
     22 C         139.2930  144.0556  156.8282 C.ar    1  UNL1       -0.0043
     23 C         138.3597  144.1171  155.6555 C.ar    1  UNL1       -0.0003
     24 C         138.0802  145.4308  154.9876 C.ar    1  UNL1       -0.0000
     25 C         138.7340  146.6829  155.4922 C.ar    1  UNL1       -0.0003
     26 C         139.6673  146.6213  156.6649 C.ar    1  UNL1       -0.0043
@<TRIPOS>BOND
     1    15    16    2
     2    16    19    1
     3    19    20    1
     4    20    21    1
     5    21    22   ar
     6    22    23   ar
     7    23    24   ar
     8    24    25   ar
     9    25    26   ar
    10    16    17   am
    11     1    17    1
    12     1     2    1
    13     2     3    1
    14     3     4    1
    15     4     7    1
    16     7     8   ar
    17     8     9   ar
    18     9    10   ar
    19    10    11    1
    20    10    12   ar
    21    12    13   ar
    22     4     5    1
    23     5     6    1
    24    26    21   ar
    25     6     1    1
    26    13     7   ar
    27    17    18    1
    28    11    14    1
@<TRIPOS>MOLECULE
*****
 26 28 0 0 0
SMALL
GASTEIGER

@<TRIPOS>ATOM
      1 C         142.4346  140.3016  167.4674 C.3     1  UNL1        0.0716
      2 C         142.8970  141.7276  167.5211 C.3     1  UNL1        0.0199
      3 C         142.3587  142.7280  166.5417 C.3     1  UNL1        0.0060
      4 C         141.3580  142.3025  165.5085 C.3     1  UNL1        0.0224
      5 C         140.8956  140.8766  165.4547 C.3     1  UNL1        0.0060
      6 C         141.4339  139.8761  166.4342 C.3     1  UNL1        0.0199
      7 C         140.8196  143.3029  164.5290 C.ar    1  UNL1       -0.0223
      8 C         139.3474  143.5859  164.4787 C.ar    1  UNL1       -0.0012
      9 C         138.8090  144.5863  163.4992 C.ar    1  UNL1        0.0363
     10 C         139.7428  145.3037  162.5701 C.ar    1  UNL1        0.1337
     11 O         139.2044  146.3041  161.5906 O.3     1  UNL1       -0.5055
     12 C         141.2150  145.0207  162.6204 C.ar    1  UNL1        0.0363
     13 C         141.7534  144.0203  163.5999 C.ar    1  UNL1       -0.0012
     14 H         138.2848  146.4809  161.5592 H       1  UNL1        0.2922
     15 O         140.9809  139.7903  170.0413 O.2     1  UNL1       -0.2751
     16 C         142.2461  139.0456  169.7338 C.2     1  UNL1        0.2228
     17 N         142.9730  139.3013  168.4469 N.am    1  UNL1       -0.3060
     18 H         143.8034  138.8125  168.2451 H       1  UNL1        0.1494
     19 C         142.7844  138.0452  170.7133 C.3     1  UNL1        0.0897
     20 C         143.8794  137.1065  170.3013 C.3     1  UNL1        0.0359
     21 C         144.7340  136.4475  171.3433 C.ar    1  UNL1       -0.0217
     22 C         145.7129  137.2624  172.1355 C.ar    1  UNL1       -0.0043
     23 C         146.5674  136.6035  173.1774 C.ar    1  UNL1       -0.0003
     24 C         146.4430  135.1297  173.4270 C.ar    1  UNL1       -0.0000
     25 C         145.4642  134.3147  172.6348 C.ar    1  UNL1       -0.0003
     26 C         144.6097  134.9737  171.5929 C.ar    1  UNL1       -0.0043
@<TRIPOS>BOND
     1    15    16    2
     2    16    19    1
     3    19    20    1
     4    20    21    1
     5    21    22   ar
     6    22    23   ar
     7    23    24   ar
     8    24    25   ar
     9    25    26   ar
    10    16    17   am
    11     1    17    1
    12     1     2    1
    13     2     3    1
    14     3     4    1
    15     4     7    1
    16     7     8   ar
    17     8     9   ar
    18     9    10   ar
    19    10    11    1
    20    10    12   ar
    21    12    13   ar
    22     4     5    1
    23     5     6    1
    24    26    21   ar
    25     6     1    1
    26    13     7   ar
    27    17    18    1
    28    11    14    1
@<TRIPOS>MOLECULE
*****
 26 28 0 0 0
SMALL
GASTEIGER

@<TRIPOS>ATOM
      1 C         141.8363  138.2285  164.1385 C.3     1  UNL1        0.0716
      2 C         140.4722  138.7135  164.5310 C.3     1  UNL1        0.0199
      3 C         140.2580  139.3429  165.8756 C.3     1  UNL1        0.0060
      4 C         141.4080  139.4873  166.8278 C.3     1  UNL1        0.0224
      5 C         142.7721  139.0024  166.4354 C.3     1  UNL1        0.0060
      6 C         142.9863  138.3730  165.0907 C.3     1  UNL1        0.0199
      7 C         141.1939  140.1167  168.1724 C.ar    1  UNL1       -0.0223
      8 C         139.8296  140.6012  168.5651 C.ar    1  UNL1       -0.0012
      9 C         139.6155  141.2305  169.9097 C.ar    1  UNL1        0.0363
     10 C         140.7656  141.3754  170.8617 C.ar    1  UNL1        0.1337
     11 O         140.5514  142.0048  172.2063 O.3     1  UNL1       -0.5055
     12 C         142.1298  140.8909  170.4691 C.ar    1  UNL1        0.0363
     13 C         142.3440  140.2615  169.1244 C.ar    1  UNL1       -0.0012
     14 H         139.6992  142.3074  172.4516 H       1  UNL1        0.2922
     15 O         143.5157  139.6225  162.0803 O.2     1  UNL1       -0.2751
     16 C         142.8901  138.2962  161.7648 C.2     1  UNL1        0.2228
     17 N         142.0505  137.5992  162.7939 N.am    1  UNL1       -0.3060
     18 H         141.6399  136.7287  162.5868 H       1  UNL1        0.1494
     19 C         143.1043  137.6668  160.4201 C.3     1  UNL1        0.0897
     20 C         142.7721  138.4310  159.1729 C.3     1  UNL1        0.0359
     21 C         142.1052  137.7362  158.0228 C.ar    1  UNL1       -0.0217
     22 C         142.8187  136.6349  157.2961 C.ar    1  UNL1       -0.0043
     23 C         142.1518  135.9403  156.1461 C.ar    1  UNL1       -0.0003
     24 C         140.7714  136.3469  155.7227 C.ar    1  UNL1       -0.0000
     25 C         140.0579  137.4482  156.4494 C.ar    1  UNL1       -0.0003
     26 C         140.7248  138.1428  157.5994 C.ar    1  UNL1       -0.0043
@<TRIPOS>BOND
     1    15    16    2
     2    16    19    1
     3    19    20    1
     4    20    21    1
     5    21    22   ar
     6    22    23   ar
     7    23    24   ar
     8    24    25   ar
     9    25    26   ar
    10    16    17   am
    11     1    17    1
    12     1     2    1
    13     2     3    1
    14     3     4    1
    15     4     7    1
    16     7     8   ar
    17     8     9   ar
    18     9    10   ar
    19    10    11    1
    20    10    12   ar
    21    12    13   ar
    22     4     5    1
    23     5     6    1
    24    26    21   ar
    25     6     1    1
    26    13     7   ar
    27    17    18    1
    28    11    14    1
@<TRIPOS>MOLECULE
*****
 26 28 0 0 0
SMALL
GASTEIGER

@<TRIPOS>ATOM
      1 C         138.2112  140.4381  164.2609 C.3     1  UNL1        0.0716
      2 C         138.0365  139.3094  165.2333 C.3     1  UNL1        0.0199
      3 C         138.7314  139.3498  166.5620 C.3     1  UNL1        0.0060
      4 C         139.6010  140.5189  166.9183 C.3     1  UNL1        0.0224
      5 C         139.7758  141.6475  165.9459 C.3     1  UNL1        0.0060
      6 C         139.0808  141.6072  164.6172 C.3     1  UNL1        0.0199
      7 C         140.2959  140.5593  168.2470 C.ar    1  UNL1       -0.0223
      8 C         141.7893  140.6865  168.3088 C.ar    1  UNL1       -0.0012
      9 C         142.4842  140.7269  169.6375 C.ar    1  UNL1        0.0363
     10 C         141.6858  140.6401  170.9044 C.ar    1  UNL1        0.1337
     11 O         142.3808  140.6806  172.2331 O.3     1  UNL1       -0.5055
     12 C         140.1925  140.5130  170.8426 C.ar    1  UNL1        0.0363
     13 C         139.4975  140.4726  169.5139 C.ar    1  UNL1       -0.0012
     14 H         143.3136  140.7600  172.2717 H       1  UNL1        0.2922
     15 O         139.2644  138.6798  162.0702 O.2     1  UNL1       -0.2751
     16 C         138.0429  139.5186  161.8369 C.2     1  UNL1        0.2228
     17 N         137.5163  140.3977  162.9322 N.am    1  UNL1       -0.3060
     18 H         136.7146  140.9482  162.7790 H       1  UNL1        0.1494
     19 C         137.3480  139.4781  160.5081 C.3     1  UNL1        0.0897
     20 C         137.8333  140.3411  159.3814 C.3     1  UNL1        0.0359
     21 C         138.9680  141.2968  159.6036 C.ar    1  UNL1       -0.0217
     22 C         140.3718  140.8838  159.2738 C.ar    1  UNL1       -0.0043
     23 C         141.5064  141.8394  159.4961 C.ar    1  UNL1       -0.0003
     24 C         141.2372  143.2080  160.0480 C.ar    1  UNL1       -0.0000
     25 C         139.8334  143.6209  160.3778 C.ar    1  UNL1       -0.0003
     26 C         138.6988  142.6653  160.1555 C.ar    1  UNL1       -0.0043
@<TRIPOS>BOND
     1    15    16    2
     2    16    19    1
     3    19    20    1
     4    20    21    1
     5    21    22   ar
     6    22    23   ar
     7    23    24   ar
     8    24    25   ar
     9    25    26   ar
    10    16    17   am
    11     1    17    1
    12     1     2    1
    13     2     3    1
    14     3     4    1
    15     4     7    1
    16     7     8   ar
    17     8     9   ar
    18     9    10   ar
    19    10    11    1
    20    10    12   ar
    21    12    13   ar
    22     4     5    1
    23     5     6    1
    24    26    21   ar
    25     6     1    1
    26    13     7   ar
    27    17    18    1
    28    11    14    1
@<TRIPOS>MOLECULE
*****
 26 28 0 0 0
SMALL
GASTEIGER

@<TRIPOS>ATOM
      1 C         139.3336  140.2221  163.2786 C.3     1  UNL1        0.0716
      2 C         140.5101  141.0443  163.7144 C.3     1  UNL1        0.0199
      3 C         140.7068  141.3611  165.1673 C.3     1  UNL1        0.0060
      4 C         139.7270  140.8556  166.1845 C.3     1  UNL1        0.0224
      5 C         138.5506  140.0335  165.7487 C.3     1  UNL1        0.0060
      6 C         138.3538  139.7167  164.2958 C.3     1  UNL1        0.0199
      7 C         139.9237  141.1724  167.6374 C.ar    1  UNL1       -0.0223
      8 C         139.5347  140.1696  168.6830 C.ar    1  UNL1       -0.0012
      9 C         139.7314  140.4863  170.1359 C.ar    1  UNL1        0.0363
     10 C         140.3171  141.8058  170.5432 C.ar    1  UNL1        0.1337
     11 O         140.5138  142.1225  171.9962 O.3     1  UNL1       -0.5055
     12 C         140.7061  142.8085  169.4977 C.ar    1  UNL1        0.0363
     13 C         140.5094  142.4918  168.0447 C.ar    1  UNL1       -0.0012
     14 H         140.2708  141.4961  172.6493 H       1  UNL1        0.2922
     15 O         140.3196  137.6171  162.1645 O.2     1  UNL1       -0.2751
     16 C         139.6299  138.6029  161.2687 C.2     1  UNL1        0.2228
     17 N         139.1369  139.9054  161.8257 N.am    1  UNL1       -0.3060
     18 H         138.6843  140.5524  161.2377 H       1  UNL1        0.1494
     19 C         139.4332  138.2861  159.8157 C.3     1  UNL1        0.0897
     20 C         140.3883  138.8280  158.7940 C.3     1  UNL1        0.0359
     21 C         140.9300  137.9289  157.7224 C.ar    1  UNL1       -0.0217
     22 C         140.0246  137.4244  156.6381 C.ar    1  UNL1       -0.0043
     23 C         140.5663  136.5254  155.5666 C.ar    1  UNL1       -0.0003
     24 C         142.0134  136.1308  155.5793 C.ar    1  UNL1       -0.0000
     25 C         142.9188  136.6353  156.6635 C.ar    1  UNL1       -0.0003
     26 C         142.3771  137.5343  157.7351 C.ar    1  UNL1       -0.0043
@<TRIPOS>BOND
     1    15    16    2
     2    16    19    1
     3    19    20    1
     4    20    21    1
     5    21    22   ar
     6    22    23   ar
     7    23    24   ar
     8    24    25   ar
     9    25    26   ar
    10    16    17   am
    11     1    17    1
    12     1     2    1
    13     2     3    1
    14     3     4    1
    15     4     7    1
    16     7     8   ar
    17     8     9   ar
    18     9    10   ar
    19    10    11    1
    20    10    12   ar
    21    12    13   ar
    22     4     5    1
    23     5     6    1
    24    26    21   ar
    25     6     1    1
    26    13     7   ar
    27    17    18    1
    28    11    14    1
@<TRIPOS>MOLECULE
*****
 26 28 0 0 0
SMALL
GASTEIGER

@<TRIPOS>ATOM
      1 C         141.6161  144.9093  161.1365 C.3     1  UNL1        0.0716
      2 C         142.4868  143.7228  161.4270 C.3     1  UNL1        0.0199
      3 C         142.4891  143.1116  162.7968 C.3     1  UNL1        0.0060
      4 C         141.6207  143.6868  163.8762 C.3     1  UNL1        0.0224
      5 C         140.7500  144.8732  163.5858 C.3     1  UNL1        0.0060
      6 C         140.7477  145.4845  162.2159 C.3     1  UNL1        0.0199
      7 C         141.6230  143.0756  165.2460 C.ar    1  UNL1       -0.0223
      8 C         140.3688  143.0747  166.0690 C.ar    1  UNL1       -0.0012
      9 C         140.3711  142.4635  167.4387 C.ar    1  UNL1        0.0363
     10 C         141.6274  141.8531  167.9856 C.ar    1  UNL1        0.1337
     11 O         141.6297  141.2419  169.3555 O.3     1  UNL1       -0.5055
     12 C         142.8815  141.8540  167.1627 C.ar    1  UNL1        0.0363
     13 C         142.8793  142.4652  165.7928 C.ar    1  UNL1       -0.0012
     14 H         140.8463  141.2414  169.8695 H       1  UNL1        0.2922
     15 O         139.5011  144.1384  159.1536 O.2     1  UNL1       -0.2751
     16 C         140.5563  145.1351  158.7753 C.2     1  UNL1        0.2228
     17 N         141.6139  145.5205  159.7668 N.am    1  UNL1       -0.3060
     18 H         142.3064  146.1746  159.5184 H       1  UNL1        0.1494
     19 C         140.5540  145.7463  157.4054 C.3     1  UNL1        0.0897
     20 C         139.2661  146.2133  156.7947 C.3     1  UNL1        0.0359
     21 C         139.1758  147.5834  156.1907 C.ar    1  UNL1       -0.0217
     22 C         138.5144  148.6955  156.9495 C.ar    1  UNL1       -0.0043
     23 C         138.4242  150.0655  156.3455 C.ar    1  UNL1       -0.0003
     24 C         138.9953  150.3234  154.9826 C.ar    1  UNL1       -0.0000
     25 C         139.6566  149.2113  154.2238 C.ar    1  UNL1       -0.0003
     26 C         139.7469  147.8413  154.8278 C.ar    1  UNL1       -0.0043
@<TRIPOS>BOND
     1    15    16    2
     2    16    19    1
     3    19    20    1
     4    20    21    1
     5    21    22   ar
     6    22    23   ar
     7    23    24   ar
     8    24    25   ar
     9    25    26   ar
    10    16    17   am
    11     1    17    1
    12     1     2    1
    13     2     3    1
    14     3     4    1
    15     4     7    1
    16     7     8   ar
    17     8     9   ar
    18     9    10   ar
    19    10    11    1
    20    10    12   ar
    21    12    13   ar
    22     4     5    1
    23     5     6    1
    24    26    21   ar
    25     6     1    1
    26    13     7   ar
    27    17    18    1
    28    11    14    1
@<TRIPOS>MOLECULE
*****
 26 28 0 0 0
SMALL
GASTEIGER

@<TRIPOS>ATOM
      1 C         142.9500  142.6169  163.1073 C.3     1  UNL1        0.0716
      2 C         144.1348  142.7804  164.0127 C.3     1  UNL1        0.0199
      3 C         143.9562  142.7160  165.5006 C.3     1  UNL1        0.0060
      4 C         142.5929  142.4879  166.0832 C.3     1  UNL1        0.0224
      5 C         141.4082  142.3244  165.1779 C.3     1  UNL1        0.0060
      6 C         141.5867  142.3889  163.6899 C.3     1  UNL1        0.0199
      7 C         142.4144  142.4235  167.5711 C.ar    1  UNL1       -0.0223
      8 C         143.6147  142.3614  168.4686 C.ar    1  UNL1       -0.0012
      9 C         143.4362  142.2970  169.9565 C.ar    1  UNL1        0.0363
     10 C         142.0573  142.2945  170.5470 C.ar    1  UNL1        0.1337
     11 O         141.8788  142.2300  172.0350 O.3     1  UNL1       -0.5055
     12 C         140.8570  142.3565  169.6496 C.ar    1  UNL1        0.0363
     13 C         141.0355  142.4210  168.1616 C.ar    1  UNL1       -0.0012
     14 H         142.6286  142.1913  172.5955 H       1  UNL1        0.2922
     15 O         143.9903  140.2304  161.6166 O.2     1  UNL1       -0.2751
     16 C         143.6487  141.4881  160.8740 C.2     1  UNL1        0.2228
     17 N         143.1286  142.6814  161.6194 N.am    1  UNL1       -0.3060
     18 H         142.9044  143.5069  161.1320 H       1  UNL1        0.1494
     19 C         143.8273  141.5526  159.3861 C.3     1  UNL1        0.0897
     20 C         144.7848  142.5401  158.7877 C.3     1  UNL1        0.0359
     21 C         145.6042  142.1593  157.5903 C.ar    1  UNL1       -0.0217
     22 C         146.9170  142.8378  157.3333 C.ar    1  UNL1       -0.0043
     23 C         147.7363  142.4570  156.1360 C.ar    1  UNL1       -0.0003
     24 C         147.2429  141.3977  155.1956 C.ar    1  UNL1       -0.0000
     25 C         145.9301  140.7192  155.4526 C.ar    1  UNL1       -0.0003
     26 C         145.1107  141.1000  156.6499 C.ar    1  UNL1       -0.0043
@<TRIPOS>BOND
     1    15    16    2
     2    16    19    1
     3    19    20    1
     4    20    21    1
     5    21    22   ar
     6    22    23   ar
     7    23    24   ar
     8    24    25   ar
     9    25    26   ar
    10    16    17   am
    11     1    17    1
    12     1     2    1
    13     2     3    1
    14     3     4    1
    15     4     7    1
    16     7     8   ar
    17     8     9   ar
    18     9    10   ar
    19    10    11    1
    20    10    12   ar
    21    12    13   ar
    22     4     5    1
    23     5     6    1
    24    26    21   ar
    25     6     1    1
    26    13     7   ar
    27    17    18    1
    28    11    14    1
@<TRIPOS>MOLECULE
*****
 26 28 0 0 0
SMALL
GASTEIGER

@<TRIPOS>ATOM
      1 C         142.6326  138.1147  163.0699 C.3     1  UNL1        0.0716
      2 C         141.3507  137.6441  163.6909 C.3     1  UNL1        0.0199
      3 C         140.9726  138.1012  165.0685 C.3     1  UNL1        0.0060
      4 C         141.8762  139.0290  165.8253 C.3     1  UNL1        0.0224
      5 C         143.1580  139.4996  165.2044 C.3     1  UNL1        0.0060
      6 C         143.5362  139.0425  163.8267 C.3     1  UNL1        0.0199
      7 C         141.4981  139.4861  167.2029 C.ar    1  UNL1       -0.0223
      8 C         142.5334  139.5358  168.2873 C.ar    1  UNL1       -0.0012
      9 C         142.1553  139.9930  169.6649 C.ar    1  UNL1        0.0363
     10 C         140.7418  140.4004  169.9583 C.ar    1  UNL1        0.1337
     11 O         140.3637  140.8576  171.3361 O.3     1  UNL1       -0.5055
     12 C         139.7065  140.3507  168.8741 C.ar    1  UNL1        0.0363
     13 C         140.0846  139.8936  167.4964 C.ar    1  UNL1       -0.0012
     14 H         141.0104  140.8886  172.0134 H       1  UNL1        0.2922
     15 O         141.8045  139.7222  160.6762 O.2     1  UNL1       -0.2751
     16 C         142.5967  138.4613  160.4954 C.2     1  UNL1        0.2228
     17 N         143.0107  137.6576  161.6923 N.am    1  UNL1       -0.3060
     18 H         143.5306  136.8300  161.5736 H       1  UNL1        0.1494
     19 C         142.9748  138.0042  159.1176 C.3     1  UNL1        0.0897
     20 C         141.9096  137.7540  158.0917 C.3     1  UNL1        0.0359
     21 C         142.2024  136.8884  156.9021 C.ar    1  UNL1       -0.0217
     22 C         142.9720  135.6125  157.0743 C.ar    1  UNL1       -0.0043
     23 C         143.2648  134.7469  155.8848 C.ar    1  UNL1       -0.0003
     24 C         142.7880  135.1573  154.5231 C.ar    1  UNL1       -0.0000
     25 C         142.0184  136.4332  154.3509 C.ar    1  UNL1       -0.0003
     26 C         141.7256  137.2988  155.5404 C.ar    1  UNL1       -0.0043
@<TRIPOS>BOND
     1    15    16    2
     2    16    19    1
     3    19    20    1
     4    20    21    1
     5    21    22   ar
     6    22    23   ar
     7    23    24   ar
     8    24    25   ar
     9    25    26   ar
    10    16    17   am
    11     1    17    1
    12     1     2    1
    13     2     3    1
    14     3     4    1
    15     4     7    1
    16     7     8   ar
    17     8     9   ar
    18     9    10   ar
    19    10    11    1
    20    10    12   ar
    21    12    13   ar
    22     4     5    1
    23     5     6    1
    24    26    21   ar
    25     6     1    1
    26    13     7   ar
    27    17    18    1
    28    11    14    1
