@<TRIPOS>MOLECULE
*****
 39 43 0 0 0
SMALL
GASTEIGER

@<TRIPOS>ATOM
      1 C         139.5502  139.8539  165.5141 C.3     1  UNL1        0.2322
      2 N         138.5413  138.7561  165.6779 N.2     1  UNL1       -0.0614
      3 C         138.1073  138.7359  167.1136 C.2     1  UNL1        0.3157
      4 N         137.1081  137.7954  167.7195 N.pl3   1  UNL1       -0.2464
      5 C         138.8480  139.8212  167.8371 C.ar    1  UNL1        0.1096
      6 C         138.8257  140.2695  169.2684 C.ar    1  UNL1        0.1493
      7 F         137.9339  139.5785  170.2569 F       1  UNL1       -0.2039
      8 C         139.6951  141.4088  169.7110 C.ar    1  UNL1        0.0595
      9 C         140.5869  142.0998  168.7224 C.ar    1  UNL1        0.1422
     10 F         141.4564  143.2392  169.1652 F       1  UNL1       -0.2041
     11 C         140.6092  141.6515  167.2912 C.ar    1  UNL1        0.0304
     12 C         139.7398  140.5122  166.8486 C.ar    1  UNL1        0.0413
     13 H         136.6724  137.1126  167.1598 H       1  UNL1        0.2884
     14 H         136.8879  137.8610  168.6768 H       1  UNL1        0.2884
     15 C         139.5726  139.4055  164.0828 C.ar    1  UNL1        0.0468
     16 C         138.3636  139.6011  163.2167 C.ar    1  UNL1        0.0023
     17 C         138.3859  139.1527  161.7855 C.ar    1  UNL1        0.0342
     18 C         137.1769  139.3483  160.9194 C.3     1  UNL1        0.0360
     19 C         139.6171  138.5088  161.2204 C.ar    1  UNL1        0.2568
     20 O         139.6394  138.0604  159.7891 O.2     1  UNL1       -0.2673
     21 N         140.8261  138.3132  162.0865 N.ar    1  UNL1       -0.2946
     22 C         140.8038  138.7616  163.5177 C.ar    1  UNL1        0.0786
     23 C         142.0573  137.6693  161.5213 C.3     1  UNL1        0.1091
     24 C         143.4132  138.0891  162.0064 C.3     1  UNL1        0.0266
     25 C         141.1747  142.9513  163.6386 C.ar    1  UNL1        0.0014
     26 C         142.5911  142.8662  164.1250 C.ar    1  UNL1        0.0000
     27 C         142.9939  141.7770  165.0744 C.ar    1  UNL1       -0.0002
     28 C         141.9803  140.7729  165.5375 C.ar    1  UNL1        0.0004
     29 C         140.5638  140.8580  165.0511 C.ar    1  UNL1        0.0297
     30 C         140.1610  141.9472  164.1017 C.ar    1  UNL1        0.0004
     31 C         140.8693  145.1148  160.3257 C.ar    1  UNL1        0.0608
     32 C         139.9662  146.2187  160.7903 C.ar    1  UNL1        0.1071
     33 N         139.4659  146.2335  162.2043 N.ar    1  UNL1       -0.2417
     34 C         139.8688  145.1443  163.1538 C.ar    1  UNL1        0.0989
     35 C         140.7718  144.0405  162.6892 C.ar    1  UNL1        0.0198
     36 C         141.2721  144.0257  161.2751 C.ar    1  UNL1        0.0113
     37 C         142.3700  145.0705  156.0835 C.3     1  UNL1        0.0903
     38 C         141.8697  145.0853  157.4975 C.1     1  UNL1       -0.0853
     39 C         141.3696  145.1000  158.9116 C.1     1  UNL1       -0.0628
@<TRIPOS>BOND
     1    37    38    1
     2    38    39    3
     3    39    31    1
     4    31    32   ar
     5    32    33   ar
     6    33    34   ar
     7    34    35   ar
     8    35    25    1
     9    25    26   ar
    10    26    27   ar
    11    27    28   ar
    12    28    29   ar
    13     1    29    1
    14     1    15    1
    15    15    16   ar
    16    16    17   ar
    17    17    18    1
    18    17    19   ar
    19    19    20    2
    20    19    21   ar
    21    21    23    1
    22    23    24    1
    23    21    22   ar
    24     1     2    1
    25     2     3    2
    26     3     4    1
    27     3     5    1
    28     5     6   ar
    29     6     7    1
    30     6     8   ar
    31     8     9   ar
    32     9    10    1
    33     9    11   ar
    34    11    12   ar
    35    29    30   ar
    36    35    36   ar
    37    36    31   ar
    38    30    25   ar
    39    12     1    1
    40    22    15   ar
    41    12     5   ar
    42     4    13    1
    43     4    14    1
@<TRIPOS>MOLECULE
*****
 39 43 0 0 0
SMALL
GASTEIGER

@<TRIPOS>ATOM
      1 C         141.1306  142.1124  162.4850 C.3     1  UNL1        0.2322
      2 N         141.9482  142.7420  161.3964 N.2     1  UNL1       -0.0614
      3 C         141.4211  144.1268  161.1628 C.2     1  UNL1        0.3157
      4 N         141.9453  145.1124  160.1609 N.pl3   1  UNL1       -0.2464
      5 C         140.2777  144.3530  162.1070 C.ar    1  UNL1        0.1096
      6 C         139.3769  145.5318  162.3283 C.ar    1  UNL1        0.1493
      7 F         139.5564  146.7768  161.5111 F       1  UNL1       -0.2039
      8 C         138.2965  145.4655  163.3667 C.ar    1  UNL1        0.0595
      9 C         138.1170  144.2206  164.1839 C.ar    1  UNL1        0.1422
     10 F         137.0365  144.1544  165.2223 F       1  UNL1       -0.2041
     11 C         139.0178  143.0418  163.9626 C.ar    1  UNL1        0.0304
     12 C         140.0982  143.1080  162.9242 C.ar    1  UNL1        0.0413
     13 H         142.7042  144.8699  159.5825 H       1  UNL1        0.2884
     14 H         141.5305  146.0017  160.0818 H       1  UNL1        0.2884
     15 C         142.0315  140.9336  162.2637 C.ar    1  UNL1        0.0468
     16 C         143.0771  140.5873  163.2819 C.ar    1  UNL1        0.0023
     17 C         143.9780  139.4085  163.0607 C.ar    1  UNL1        0.0342
     18 C         145.0236  139.0622  164.0789 C.3     1  UNL1        0.0360
     19 C         143.8332  138.5762  161.8213 C.ar    1  UNL1        0.2568
     20 O         144.7341  137.3974  161.6000 O.2     1  UNL1       -0.2673
     21 N         142.7876  138.9225  160.8031 N.ar    1  UNL1       -0.2946
     22 C         141.8867  140.1013  161.0243 C.ar    1  UNL1        0.0786
     23 C         142.6429  138.0901  159.5637 C.3     1  UNL1        0.1091
     24 C         142.6719  138.7435  158.2138 C.3     1  UNL1        0.0266
     25 C         140.3288  140.4448  165.9960 C.ar    1  UNL1        0.0014
     26 C         139.2427  139.4841  165.6120 C.ar    1  UNL1        0.0000
     27 C         138.7858  139.3995  164.1858 C.ar    1  UNL1       -0.0002
     28 C         139.4151  140.2756  163.1435 C.ar    1  UNL1        0.0004
     29 C         140.5013  141.2363  163.5274 C.ar    1  UNL1        0.0297
     30 C         140.9581  141.3210  164.9536 C.ar    1  UNL1        0.0004
     31 C         142.0274  139.4874  169.4525 C.ar    1  UNL1        0.0608
     32 C         141.6996  140.6987  170.2745 C.ar    1  UNL1        0.1071
     33 N         140.9149  141.8252  169.6703 N.ar    1  UNL1       -0.2417
     34 C         140.4579  141.7406  168.2441 C.ar    1  UNL1        0.0989
     35 C         140.7857  140.5295  167.4222 C.ar    1  UNL1        0.0198
     36 C         141.5705  139.4029  168.0264 C.ar    1  UNL1        0.0113
     37 C         144.3816  136.1078  171.2651 C.3     1  UNL1        0.0903
     38 C         143.5969  137.2343  170.6608 C.1     1  UNL1       -0.0853
     39 C         142.8121  138.3609  170.0567 C.1     1  UNL1       -0.0628
@<TRIPOS>BOND
     1    37    38    1
     2    38    39    3
     3    39    31    1
     4    31    32   ar
     5    32    33   ar
     6    33    34   ar
     7    34    35   ar
     8    35    25    1
     9    25    26   ar
    10    26    27   ar
    11    27    28   ar
    12    28    29   ar
    13     1    29    1
    14     1    15    1
    15    15    16   ar
    16    16    17   ar
    17    17    18    1
    18    17    19   ar
    19    19    20    2
    20    19    21   ar
    21    21    23    1
    22    23    24    1
    23    21    22   ar
    24     1     2    1
    25     2     3    2
    26     3     4    1
    27     3     5    1
    28     5     6   ar
    29     6     7    1
    30     6     8   ar
    31     8     9   ar
    32     9    10    1
    33     9    11   ar
    34    11    12   ar
    35    29    30   ar
    36    35    36   ar
    37    36    31   ar
    38    30    25   ar
    39    12     1    1
    40    22    15   ar
    41    12     5   ar
    42     4    13    1
    43     4    14    1
@<TRIPOS>MOLECULE
*****
 39 43 0 0 0
SMALL
GASTEIGER

@<TRIPOS>ATOM
      1 C         139.5087  139.7099  165.8696 C.3     1  UNL1        0.2322
      2 N         138.4986  138.6122  166.0261 N.2     1  UNL1       -0.0614
      3 C         137.9919  138.6464  167.4375 C.2     1  UNL1        0.3157
      4 N         136.9680  137.7237  168.0293 N.pl3   1  UNL1       -0.2464
      5 C         138.6890  139.7652  168.1533 C.ar    1  UNL1        0.1096
      6 C         138.5912  140.2704  169.5623 C.ar    1  UNL1        0.1493
      7 F         137.6537  139.6131  170.5313 F       1  UNL1       -0.2039
      8 C         139.4309  141.4329  170.0021 C.ar    1  UNL1        0.0595
      9 C         140.3683  142.0902  169.0331 C.ar    1  UNL1        0.1422
     10 F         141.2080  143.2527  169.4730 F       1  UNL1       -0.2041
     11 C         140.4661  141.5850  167.6241 C.ar    1  UNL1        0.0304
     12 C         139.6264  140.4225  167.1842 C.ar    1  UNL1        0.0413
     13 H         136.5650  137.0159  167.4763 H       1  UNL1        0.2884
     14 H         136.6988  137.8260  168.9708 H       1  UNL1        0.2884
     15 C         139.6065  139.2047  164.4606 C.ar    1  UNL1        0.0468
     16 C         140.8882  138.6013  163.9674 C.ar    1  UNL1        0.0023
     17 C         140.9860  138.0961  162.5585 C.ar    1  UNL1        0.0342
     18 C         142.2677  137.4928  162.0653 C.3     1  UNL1        0.0360
     19 C         139.8021  138.1942  161.6427 C.ar    1  UNL1        0.2568
     20 O         139.8999  137.6890  160.2337 O.2     1  UNL1       -0.2673
     21 N         138.5204  138.7975  162.1358 N.ar    1  UNL1       -0.2946
     22 C         138.4226  139.3028  163.5448 C.ar    1  UNL1        0.0786
     23 C         137.3365  138.8956  161.2200 C.3     1  UNL1        0.1091
     24 C         137.2877  139.9649  160.1692 C.3     1  UNL1        0.0266
     25 C         141.2079  142.7476  163.9628 C.ar    1  UNL1        0.0014
     26 C         142.6007  142.6862  164.5162 C.ar    1  UNL1        0.0000
     27 C         142.9629  141.6328  165.5208 C.ar    1  UNL1       -0.0002
     28 C         141.9323  140.6407  165.9719 C.ar    1  UNL1        0.0004
     29 C         140.5394  140.7020  165.4185 C.ar    1  UNL1        0.0297
     30 C         140.1772  141.7555  164.4139 C.ar    1  UNL1        0.0004
     31 C         140.2328  144.4732  160.5247 C.ar    1  UNL1        0.0608
     32 C         140.1211  145.9077  160.9491 C.ar    1  UNL1        0.1071
     33 N         140.3716  146.2887  162.3781 N.ar    1  UNL1       -0.2417
     34 C         140.7339  145.2353  163.3827 C.ar    1  UNL1        0.0989
     35 C         140.8456  143.8010  162.9583 C.ar    1  UNL1        0.0198
     36 C         140.5950  143.4200  161.5292 C.ar    1  UNL1        0.0113
     37 C         139.4810  143.3301  156.2377 C.3     1  UNL1        0.0903
     38 C         139.7316  143.7112  157.6667 C.1     1  UNL1       -0.0853
     39 C         139.9822  144.0922  159.0957 C.1     1  UNL1       -0.0628
@<TRIPOS>BOND
     1    37    38    1
     2    38    39    3
     3    39    31    1
     4    31    32   ar
     5    32    33   ar
     6    33    34   ar
     7    34    35   ar
     8    35    25    1
     9    25    26   ar
    10    26    27   ar
    11    27    28   ar
    12    28    29   ar
    13     1    29    1
    14     1    15    1
    15    15    16   ar
    16    16    17   ar
    17    17    18    1
    18    17    19   ar
    19    19    20    2
    20    19    21   ar
    21    21    23    1
    22    23    24    1
    23    21    22   ar
    24     1     2    1
    25     2     3    2
    26     3     4    1
    27     3     5    1
    28     5     6   ar
    29     6     7    1
    30     6     8   ar
    31     8     9   ar
    32     9    10    1
    33     9    11   ar
    34    11    12   ar
    35    29    30   ar
    36    35    36   ar
    37    36    31   ar
    38    30    25   ar
    39    12     1    1
    40    22    15   ar
    41    12     5   ar
    42     4    13    1
    43     4    14    1
@<TRIPOS>MOLECULE
*****
 39 43 0 0 0
SMALL
GASTEIGER

@<TRIPOS>ATOM
      1 C         141.0937  142.1070  162.3404 C.3     1  UNL1        0.2322
      2 N         141.9083  142.7089  161.2341 N.2     1  UNL1       -0.0614
      3 C         141.4032  144.1003  160.9909 C.2     1  UNL1        0.3157
      4 N         141.9320  145.0645  159.9708 N.pl3   1  UNL1       -0.2464
      5 C         140.2766  144.3582  161.9471 C.ar    1  UNL1        0.1096
      6 C         139.4002  145.5557  162.1660 C.ar    1  UNL1        0.1493
      7 F         139.5915  146.7876  161.3319 F       1  UNL1       -0.2039
      8 C         138.3325  145.5211  163.2189 C.ar    1  UNL1        0.0595
      9 C         138.1412  144.2892  164.0530 C.ar    1  UNL1        0.1422
     10 F         137.0734  144.2547  165.1059 F       1  UNL1       -0.2041
     11 C         139.0176  143.0917  163.8341 C.ar    1  UNL1        0.0304
     12 C         140.0853  143.1262  162.7811 C.ar    1  UNL1        0.0413
     13 H         142.6788  144.8016  159.3856 H       1  UNL1        0.2884
     14 H         141.5324  145.9603  159.8865 H       1  UNL1        0.2884
     15 C         141.9702  140.9094  162.1215 C.ar    1  UNL1        0.0468
     16 C         141.8856  140.1433  160.8347 C.ar    1  UNL1        0.0023
     17 C         142.7620  138.9459  160.6157 C.ar    1  UNL1        0.0342
     18 C         142.6773  138.1798  159.3288 C.3     1  UNL1        0.0360
     19 C         143.7230  138.5146  161.6835 C.ar    1  UNL1        0.2568
     20 O         144.5994  137.3171  161.4646 O.2     1  UNL1       -0.2673
     21 N         143.8076  139.2807  162.9703 N.ar    1  UNL1       -0.2946
     22 C         142.9312  140.4781  163.1893 C.ar    1  UNL1        0.0786
     23 C         144.7687  138.8493  164.0382 C.3     1  UNL1        0.1091
     24 C         144.3426  138.8523  165.4764 C.3     1  UNL1        0.0266
     25 C         140.2949  140.5088  165.8842 C.ar    1  UNL1        0.0014
     26 C         139.1997  139.5498  165.5223 C.ar    1  UNL1        0.0000
     27 C         138.7358  139.4432  164.0998 C.ar    1  UNL1       -0.0002
     28 C         139.3671  140.2956  163.0392 C.ar    1  UNL1        0.0004
     29 C         140.4624  141.2546  163.4010 C.ar    1  UNL1        0.0297
     30 C         140.9263  141.3612  164.8235 C.ar    1  UNL1        0.0004
     31 C         141.9952  139.5972  169.3522 C.ar    1  UNL1        0.0608
     32 C         141.6868  140.8285  170.1515 C.ar    1  UNL1        0.1071
     33 N         140.9144  141.9532  169.5283 N.ar    1  UNL1       -0.2417
     34 C         140.4504  141.8467  168.1058 C.ar    1  UNL1        0.0989
     35 C         140.7588  140.6154  167.3066 C.ar    1  UNL1        0.0198
     36 C         141.5313  139.4906  167.9298 C.ar    1  UNL1        0.0113
     37 C         144.3125  136.2230  171.2217 C.3     1  UNL1        0.0903
     38 C         143.5401  137.3477  170.5985 C.1     1  UNL1       -0.0853
     39 C         142.7676  138.4725  169.9754 C.1     1  UNL1       -0.0628
@<TRIPOS>BOND
     1    37    38    1
     2    38    39    3
     3    39    31    1
     4    31    32   ar
     5    32    33   ar
     6    33    34   ar
     7    34    35   ar
     8    35    25    1
     9    25    26   ar
    10    26    27   ar
    11    27    28   ar
    12    28    29   ar
    13     1    29    1
    14     1    15    1
    15    15    16   ar
    16    16    17   ar
    17    17    18    1
    18    17    19   ar
    19    19    20    2
    20    19    21   ar
    21    21    23    1
    22    23    24    1
    23    21    22   ar
    24     1     2    1
    25     2     3    2
    26     3     4    1
    27     3     5    1
    28     5     6   ar
    29     6     7    1
    30     6     8   ar
    31     8     9   ar
    32     9    10    1
    33     9    11   ar
    34    11    12   ar
    35    29    30   ar
    36    35    36   ar
    37    36    31   ar
    38    30    25   ar
    39    12     1    1
    40    22    15   ar
    41    12     5   ar
    42     4    13    1
    43     4    14    1
@<TRIPOS>MOLECULE
*****
 39 43 0 0 0
SMALL
GASTEIGER

@<TRIPOS>ATOM
      1 C         141.0610  142.0385  162.3263 C.3     1  UNL1        0.2322
      2 N         141.9313  142.6977  161.2977 N.2     1  UNL1       -0.0614
      3 C         141.4259  144.0945  161.0894 C.2     1  UNL1        0.3157
      4 N         142.0020  145.1092  160.1468 N.pl3   1  UNL1       -0.2464
      5 C         140.2433  144.2986  161.9893 C.ar    1  UNL1        0.1096
      6 C         139.3426  145.4773  162.2113 C.ar    1  UNL1        0.1493
      7 F         139.5681  146.7481  161.4468 F       1  UNL1       -0.2039
      8 C         138.2164  145.3854  163.1978 C.ar    1  UNL1        0.0595
      9 C         137.9909  144.1146  163.9623 C.ar    1  UNL1        0.1422
     10 F         136.8647  144.0227  164.9488 F       1  UNL1       -0.2041
     11 C         138.8916  142.9359  163.7402 C.ar    1  UNL1        0.0304
     12 C         140.0178  143.0279  162.7537 C.ar    1  UNL1        0.0413
     13 H         142.7841  144.8797  159.5945 H       1  UNL1        0.2884
     14 H         141.5981  146.0045  160.0803 H       1  UNL1        0.2884
     15 C         141.9618  140.8597  162.1043 C.ar    1  UNL1        0.0468
     16 C         142.9733  140.4821  163.1455 C.ar    1  UNL1        0.0023
     17 C         143.8740  139.3034  162.9235 C.ar    1  UNL1        0.0342
     18 C         144.8856  138.9258  163.9648 C.3     1  UNL1        0.0360
     19 C         143.7632  138.5023  161.6603 C.ar    1  UNL1        0.2568
     20 O         144.6639  137.3235  161.4382 O.2     1  UNL1       -0.2673
     21 N         142.7516  138.8799  160.6190 N.ar    1  UNL1       -0.2946
     22 C         141.8509  140.0586  160.8410 C.ar    1  UNL1        0.0786
     23 C         142.6408  138.0787  159.3557 C.3     1  UNL1        0.1091
     24 C         141.4789  138.2925  158.4315 C.3     1  UNL1        0.0266
     25 C         140.0072  140.3384  165.7541 C.ar    1  UNL1        0.0014
     26 C         139.0150  139.3215  165.2729 C.ar    1  UNL1        0.0000
     27 C         138.7048  139.2103  163.8095 C.ar    1  UNL1       -0.0002
     28 C         139.3868  140.1159  162.8273 C.ar    1  UNL1        0.0004
     29 C         140.3790  141.1328  163.3085 C.ar    1  UNL1        0.0297
     30 C         140.6892  141.2441  164.7719 C.ar    1  UNL1        0.0004
     31 C         141.8615  141.2846  169.1328 C.ar    1  UNL1        0.0608
     32 C         140.9380  140.6724  170.1440 C.ar    1  UNL1        0.1071
     33 N         139.7043  139.9490  169.6919 N.ar    1  UNL1       -0.2417
     34 C         139.3940  139.8376  168.2286 C.ar    1  UNL1        0.0989
     35 C         140.3174  140.4497  167.2174 C.ar    1  UNL1        0.0198
     36 C         141.5512  141.1732  167.6695 C.ar    1  UNL1        0.0113
     37 C         145.5628  143.4551  170.4891 C.3     1  UNL1        0.0903
     38 C         144.3290  142.7316  170.0369 C.1     1  UNL1       -0.0853
     39 C         143.0953  142.0081  169.5849 C.1     1  UNL1       -0.0628
@<TRIPOS>BOND
     1    37    38    1
     2    38    39    3
     3    39    31    1
     4    31    32   ar
     5    32    33   ar
     6    33    34   ar
     7    34    35   ar
     8    35    25    1
     9    25    26   ar
    10    26    27   ar
    11    27    28   ar
    12    28    29   ar
    13     1    29    1
    14     1    15    1
    15    15    16   ar
    16    16    17   ar
    17    17    18    1
    18    17    19   ar
    19    19    20    2
    20    19    21   ar
    21    21    23    1
    22    23    24    1
    23    21    22   ar
    24     1     2    1
    25     2     3    2
    26     3     4    1
    27     3     5    1
    28     5     6   ar
    29     6     7    1
    30     6     8   ar
    31     8     9   ar
    32     9    10    1
    33     9    11   ar
    34    11    12   ar
    35    29    30   ar
    36    35    36   ar
    37    36    31   ar
    38    30    25   ar
    39    12     1    1
    40    22    15   ar
    41    12     5   ar
    42     4    13    1
    43     4    14    1
@<TRIPOS>MOLECULE
*****
 39 43 0 0 0
SMALL
GASTEIGER

@<TRIPOS>ATOM
      1 C         142.3771  143.2494  159.7448 C.3     1  UNL1        0.2322
      2 N         141.8973  143.8777  158.4701 N.2     1  UNL1       -0.0614
      3 C         140.9551  144.9889  158.8271 C.2     1  UNL1        0.3157
      4 N         140.2408  145.8845  157.8587 N.pl3   1  UNL1       -0.2464
      5 C         140.8527  145.0474  160.3224 C.ar    1  UNL1        0.1096
      6 C         140.0728  145.9408  161.2409 C.ar    1  UNL1        0.1493
      7 F         139.1939  147.0159  160.6737 F       1  UNL1       -0.2039
      8 C         140.1717  145.7590  162.7265 C.ar    1  UNL1        0.0595
      9 C         141.0505  144.6839  163.2937 C.ar    1  UNL1        0.1422
     10 F         141.1494  144.5022  164.7794 F       1  UNL1       -0.2041
     11 C         141.8305  143.7906  162.3753 C.ar    1  UNL1        0.0304
     12 C         141.7316  143.9723  160.8896 C.ar    1  UNL1        0.0413
     13 H         140.3733  145.7674  156.8902 H       1  UNL1        0.2884
     14 H         139.6394  146.5893  158.1917 H       1  UNL1        0.2884
     15 C         143.1571  142.3560  158.8263 C.ar    1  UNL1        0.0468
     16 C         142.6261  140.9991  158.4703 C.ar    1  UNL1        0.0023
     17 C         143.4060  140.1057  157.5519 C.ar    1  UNL1        0.0342
     18 C         142.8749  138.7488  157.1959 C.3     1  UNL1        0.0360
     19 C         144.7169  140.5693  156.9894 C.ar    1  UNL1        0.2568
     20 O         145.4969  139.6759  156.0709 O.2     1  UNL1       -0.2673
     21 N         145.2480  141.9262  157.3453 N.ar    1  UNL1       -0.2946
     22 C         144.4681  142.8196  158.2638 C.ar    1  UNL1        0.0786
     23 C         146.5590  142.3898  156.7828 C.3     1  UNL1        0.1091
     24 C         147.5285  143.1320  157.6541 C.3     1  UNL1        0.0266
     25 C         142.8412  140.6514  162.7089 C.ar    1  UNL1        0.0014
     26 C         144.3060  140.8042  162.9930 C.ar    1  UNL1        0.0000
     27 C         145.1280  141.7720  162.1944 C.ar    1  UNL1       -0.0002
     28 C         144.4851  142.5871  161.1117 C.ar    1  UNL1        0.0004
     29 C         143.0201  142.4343  160.8275 C.ar    1  UNL1        0.0297
     30 C         142.1981  141.4665  161.6261 C.ar    1  UNL1        0.0004
     31 C         140.6364  139.1267  165.6353 C.ar    1  UNL1        0.0608
     32 C         140.3751  137.7482  165.1046 C.ar    1  UNL1        0.1071
     33 N         140.9358  137.3375  163.7753 N.ar    1  UNL1       -0.2417
     34 C         141.7578  138.3052  162.9767 C.ar    1  UNL1        0.0989
     35 C         142.0191  139.6836  163.5074 C.ar    1  UNL1        0.0198
     36 C         141.4584  140.0944  164.8367 C.ar    1  UNL1        0.0113
     37 C         138.9544  140.3589  169.6231 C.3     1  UNL1        0.0903
     38 C         139.5151  139.9482  168.2938 C.1     1  UNL1       -0.0853
     39 C         140.0757  139.5374  166.9645 C.1     1  UNL1       -0.0628
@<TRIPOS>BOND
     1    37    38    1
     2    38    39    3
     3    39    31    1
     4    31    32   ar
     5    32    33   ar
     6    33    34   ar
     7    34    35   ar
     8    35    25    1
     9    25    26   ar
    10    26    27   ar
    11    27    28   ar
    12    28    29   ar
    13     1    29    1
    14     1    15    1
    15    15    16   ar
    16    16    17   ar
    17    17    18    1
    18    17    19   ar
    19    19    20    2
    20    19    21   ar
    21    21    23    1
    22    23    24    1
    23    21    22   ar
    24     1     2    1
    25     2     3    2
    26     3     4    1
    27     3     5    1
    28     5     6   ar
    29     6     7    1
    30     6     8   ar
    31     8     9   ar
    32     9    10    1
    33     9    11   ar
    34    11    12   ar
    35    29    30   ar
    36    35    36   ar
    37    36    31   ar
    38    30    25   ar
    39    12     1    1
    40    22    15   ar
    41    12     5   ar
    42     4    13    1
    43     4    14    1
@<TRIPOS>MOLECULE
*****
 39 43 0 0 0
SMALL
GASTEIGER

@<TRIPOS>ATOM
      1 C         141.1630  142.1514  166.9548 C.3     1  UNL1        0.2322
      2 N         140.4343  143.1696  167.7808 N.2     1  UNL1       -0.0614
      3 C         140.4647  142.7149  169.2099 C.2     1  UNL1        0.3157
      4 N         139.8547  143.4333  170.3768 N.pl3   1  UNL1       -0.2464
      5 C         141.2123  141.4157  169.2672 C.ar    1  UNL1        0.1096
      6 C         141.5558  140.5049  170.4083 C.ar    1  UNL1        0.1493
      7 F         141.1242  140.8532  171.8020 F       1  UNL1       -0.2039
      8 C         142.3308  139.2457  170.1558 C.ar    1  UNL1        0.0595
      9 C         142.7624  138.8975  168.7621 C.ar    1  UNL1        0.1422
     10 F         143.5374  137.6382  168.5096 F       1  UNL1       -0.2041
     11 C         142.4189  139.8083  167.6209 C.ar    1  UNL1        0.0304
     12 C         141.6438  141.0674  167.8734 C.ar    1  UNL1        0.0413
     13 H         139.3812  144.2852  170.2377 H       1  UNL1        0.2884
     14 H         139.9279  143.0529  171.2819 H       1  UNL1        0.2884
     15 C         140.8195  143.0623  165.8136 C.ar    1  UNL1        0.0468
     16 C         139.3843  143.2897  165.4413 C.ar    1  UNL1        0.0023
     17 C         139.0408  144.2006  164.3002 C.ar    1  UNL1        0.0342
     18 C         137.6056  144.4279  163.9279 C.3     1  UNL1        0.0360
     19 C         140.1324  144.8841  163.5313 C.ar    1  UNL1        0.2568
     20 O         139.7888  145.7950  162.3901 O.2     1  UNL1       -0.2673
     21 N         141.5675  144.6567  163.9036 N.ar    1  UNL1       -0.2946
     22 C         141.9111  143.7458  165.0448 C.ar    1  UNL1        0.0786
     23 C         142.6592  145.3403  163.1347 C.3     1  UNL1        0.1091
     24 C         143.9651  144.6397  162.9030 C.3     1  UNL1        0.0266
     25 C         141.6456  139.8559  163.7536 C.ar    1  UNL1        0.0014
     26 C         143.1338  139.6681  163.7612 C.ar    1  UNL1        0.0000
     27 C         143.9651  140.3080  164.8334 C.ar    1  UNL1       -0.0002
     28 C         143.3082  141.1358  165.8979 C.ar    1  UNL1        0.0004
     29 C         141.8199  141.3236  165.8903 C.ar    1  UNL1        0.0297
     30 C         140.9887  140.6837  164.8181 C.ar    1  UNL1        0.0004
     31 C         140.4602  138.5811  160.1872 C.ar    1  UNL1        0.0608
     32 C         139.1518  137.9362  160.5372 C.ar    1  UNL1        0.1071
     33 N         138.6748  137.9311  161.9593 N.ar    1  UNL1       -0.2417
     34 C         139.5061  138.5710  163.0315 C.ar    1  UNL1        0.0989
     35 C         140.8143  139.2159  162.6815 C.ar    1  UNL1        0.0198
     36 C         141.2914  139.2210  161.2593 C.ar    1  UNL1        0.0113
     37 C         141.8913  138.5962  155.9208 C.3     1  UNL1        0.0903
     38 C         141.4143  138.5912  157.3429 C.1     1  UNL1       -0.0853
     39 C         140.9372  138.5862  158.7651 C.1     1  UNL1       -0.0628
@<TRIPOS>BOND
     1    37    38    1
     2    38    39    3
     3    39    31    1
     4    31    32   ar
     5    32    33   ar
     6    33    34   ar
     7    34    35   ar
     8    35    25    1
     9    25    26   ar
    10    26    27   ar
    11    27    28   ar
    12    28    29   ar
    13     1    29    1
    14     1    15    1
    15    15    16   ar
    16    16    17   ar
    17    17    18    1
    18    17    19   ar
    19    19    20    2
    20    19    21   ar
    21    21    23    1
    22    23    24    1
    23    21    22   ar
    24     1     2    1
    25     2     3    2
    26     3     4    1
    27     3     5    1
    28     5     6   ar
    29     6     7    1
    30     6     8   ar
    31     8     9   ar
    32     9    10    1
    33     9    11   ar
    34    11    12   ar
    35    29    30   ar
    36    35    36   ar
    37    36    31   ar
    38    30    25   ar
    39    12     1    1
    40    22    15   ar
    41    12     5   ar
    42     4    13    1
    43     4    14    1
@<TRIPOS>MOLECULE
*****
 39 43 0 0 0
SMALL
GASTEIGER

@<TRIPOS>ATOM
      1 C         139.9553  143.8705  159.7519 C.3     1  UNL1        0.2322
      2 N         140.4911  145.1985  160.1983 N.2     1  UNL1       -0.0614
      3 C         140.0509  145.4235  161.6145 C.2     1  UNL1        0.3157
      4 N         140.3637  146.6263  162.4545 N.pl3   1  UNL1       -0.2464
      5 C         139.2432  144.2346  162.0434 C.ar    1  UNL1        0.1096
      6 C         138.5538  143.9020  163.3334 C.ar    1  UNL1        0.1493
      7 F         138.6129  144.8618  164.4846 F       1  UNL1       -0.2039
      8 C         137.8054  142.6095  163.4722 C.ar    1  UNL1        0.0595
      9 C         137.7463  141.6497  162.3211 C.ar    1  UNL1        0.1422
     10 F         136.9978  140.3571  162.4599 F       1  UNL1       -0.2041
     11 C         138.4356  141.9823  161.0311 C.ar    1  UNL1        0.0304
     12 C         139.1841  143.2747  160.8922 C.ar    1  UNL1        0.0413
     13 H         140.9047  147.3597  162.0820 H       1  UNL1        0.2884
     14 H         140.0279  146.6824  163.3782 H       1  UNL1        0.2884
     15 C         140.6447  144.2032  158.4619 C.ar    1  UNL1        0.0468
     16 C         141.8229  143.3920  158.0103 C.ar    1  UNL1        0.0023
     17 C         142.5123  143.7246  156.7203 C.ar    1  UNL1        0.0342
     18 C         143.6905  142.9135  156.2687 C.3     1  UNL1        0.0360
     19 C         142.0235  144.8684  155.8820 C.ar    1  UNL1        0.2568
     20 O         142.7129  145.2011  154.5919 O.2     1  UNL1       -0.2673
     21 N         140.8453  145.6795  156.3336 N.ar    1  UNL1       -0.2946
     22 C         140.1559  145.3469  157.6236 C.ar    1  UNL1        0.0786
     23 C         140.3566  146.8233  155.4952 C.3     1  UNL1        0.1091
     24 C         138.8881  146.9927  155.2405 C.3     1  UNL1        0.0266
     25 C         137.9995  141.3567  157.3843 C.ar    1  UNL1        0.0014
     26 C         138.7804  140.0949  157.6036 C.ar    1  UNL1        0.0000
     27 C         139.9530  140.0917  158.5391 C.ar    1  UNL1       -0.0002
     28 C         140.3447  141.3502  159.2552 C.ar    1  UNL1        0.0004
     29 C         139.5637  142.6120  159.0359 C.ar    1  UNL1        0.0297
     30 C         138.3911  142.6152  158.1004 C.ar    1  UNL1        0.0004
     31 C         134.4335  140.5543  155.8384 C.ar    1  UNL1        0.0608
     32 C         134.4816  141.3666  154.5782 C.ar    1  UNL1        0.1071
     33 N         135.7023  142.1755  154.2534 N.ar    1  UNL1       -0.2417
     34 C         136.8750  142.1722  155.1888 C.ar    1  UNL1        0.0989
     35 C         136.8269  141.3600  156.4489 C.ar    1  UNL1        0.0198
     36 C         135.6061  140.5510  156.7737 C.ar    1  UNL1        0.0113
     37 C         130.7714  138.1275  156.8127 C.3     1  UNL1        0.0903
     38 C         131.9921  138.9365  156.4880 C.1     1  UNL1       -0.0853
     39 C         133.2128  139.7453  156.1632 C.1     1  UNL1       -0.0628
@<TRIPOS>BOND
     1    37    38    1
     2    38    39    3
     3    39    31    1
     4    31    32   ar
     5    32    33   ar
     6    33    34   ar
     7    34    35   ar
     8    35    25    1
     9    25    26   ar
    10    26    27   ar
    11    27    28   ar
    12    28    29   ar
    13     1    29    1
    14     1    15    1
    15    15    16   ar
    16    16    17   ar
    17    17    18    1
    18    17    19   ar
    19    19    20    2
    20    19    21   ar
    21    21    23    1
    22    23    24    1
    23    21    22   ar
    24     1     2    1
    25     2     3    2
    26     3     4    1
    27     3     5    1
    28     5     6   ar
    29     6     7    1
    30     6     8   ar
    31     8     9   ar
    32     9    10    1
    33     9    11   ar
    34    11    12   ar
    35    29    30   ar
    36    35    36   ar
    37    36    31   ar
    38    30    25   ar
    39    12     1    1
    40    22    15   ar
    41    12     5   ar
    42     4    13    1
    43     4    14    1
@<TRIPOS>MOLECULE
*****
 39 43 0 0 0
SMALL
GASTEIGER

@<TRIPOS>ATOM
      1 C         140.3879  140.6579  167.0507 C.3     1  UNL1        0.2322
      2 N         139.1952  140.0767  167.7504 N.2     1  UNL1       -0.0614
      3 C         139.3834  140.2705  169.2258 C.2     1  UNL1        0.3157
      4 N         138.4300  139.8390  170.3005 N.pl3   1  UNL1       -0.2464
      5 C         140.6925  140.9715  169.4380 C.ar    1  UNL1        0.1096
      6 C         141.3993  141.4227  170.6817 C.ar    1  UNL1        0.1493
      7 F         140.7785  141.1832  172.0260 F       1  UNL1       -0.2039
      8 C         142.7270  142.1133  170.5810 C.ar    1  UNL1        0.0595
      9 C         143.3478  142.3528  169.2366 C.ar    1  UNL1        0.1422
     10 F         144.6756  143.0435  169.1360 F       1  UNL1       -0.2041
     11 C         142.6409  141.9016  167.9930 C.ar    1  UNL1        0.0304
     12 C         141.3133  141.2110  168.0937 C.ar    1  UNL1        0.0413
     13 H         137.5912  139.3831  170.0603 H       1  UNL1        0.2884
     14 H         138.6431  140.0117  171.2460 H       1  UNL1        0.2884
     15 C         139.6809  140.2067  165.8070 C.ar    1  UNL1        0.0468
     16 C         139.8791  138.8103  165.2964 C.ar    1  UNL1        0.0023
     17 C         139.1722  138.3590  164.0528 C.ar    1  UNL1        0.0342
     18 C         139.3704  136.9626  163.5422 C.3     1  UNL1        0.0360
     19 C         138.2671  139.3042  163.3198 C.ar    1  UNL1        0.2568
     20 O         137.5602  138.8530  162.0761 O.2     1  UNL1       -0.2673
     21 N         138.0689  140.7006  163.8303 N.ar    1  UNL1       -0.2946
     22 C         138.7758  141.1519  165.0739 C.ar    1  UNL1        0.0786
     23 C         137.1638  141.6458  163.0972 C.3     1  UNL1        0.1091
     24 C         137.7255  142.8867  162.4689 C.3     1  UNL1        0.0266
     25 C         142.1126  142.6183  164.0619 C.ar    1  UNL1        0.0014
     26 C         143.5227  142.1187  164.1715 C.ar    1  UNL1        0.0000
     27 C         143.8879  141.1321  165.2408 C.ar    1  UNL1       -0.0002
     28 C         142.8430  140.6452  166.2005 C.ar    1  UNL1        0.0004
     29 C         141.4328  141.1449  166.0910 C.ar    1  UNL1        0.0297
     30 C         141.0676  142.1314  165.0217 C.ar    1  UNL1        0.0004
     31 C         141.7608  144.3252  160.4965 C.ar    1  UNL1        0.0608
     32 C         141.0170  145.5778  160.8541 C.ar    1  UNL1        0.1071
     33 N         140.6384  145.8439  162.2809 N.ar    1  UNL1       -0.2417
     34 C         141.0036  144.8574  163.3502 C.ar    1  UNL1        0.0989
     35 C         141.7474  143.6049  162.9927 C.ar    1  UNL1        0.0198
     36 C         142.1259  143.3388  161.5658 C.ar    1  UNL1        0.0113
     37 C         142.8965  143.5269  156.2160 C.3     1  UNL1        0.0903
     38 C         142.5179  143.7930  157.6428 C.1     1  UNL1       -0.0853
     39 C         142.1393  144.0591  159.0697 C.1     1  UNL1       -0.0628
@<TRIPOS>BOND
     1    37    38    1
     2    38    39    3
     3    39    31    1
     4    31    32   ar
     5    32    33   ar
     6    33    34   ar
     7    34    35   ar
     8    35    25    1
     9    25    26   ar
    10    26    27   ar
    11    27    28   ar
    12    28    29   ar
    13     1    29    1
    14     1    15    1
    15    15    16   ar
    16    16    17   ar
    17    17    18    1
    18    17    19   ar
    19    19    20    2
    20    19    21   ar
    21    21    23    1
    22    23    24    1
    23    21    22   ar
    24     1     2    1
    25     2     3    2
    26     3     4    1
    27     3     5    1
    28     5     6   ar
    29     6     7    1
    30     6     8   ar
    31     8     9   ar
    32     9    10    1
    33     9    11   ar
    34    11    12   ar
    35    29    30   ar
    36    35    36   ar
    37    36    31   ar
    38    30    25   ar
    39    12     1    1
    40    22    15   ar
    41    12     5   ar
    42     4    13    1
    43     4    14    1
