@<TRIPOS>MOLECULE
*****
 32 35 0 0 0
SMALL
GASTEIGER

@<TRIPOS>ATOM
      1 N         138.6669  138.8133  163.7893 N.3     1  UNL1       -0.2690
      2 C         138.5568  140.2224  163.2868 C.3     1  UNL1        0.0724
      3 C         138.7765  140.5195  161.8330 C.3     1  UNL1        0.0188
      4 C         139.1063  139.4077  160.8817 C.3     1  UNL1        0.0188
      5 C         139.2164  137.9986  161.3842 C.3     1  UNL1        0.0188
      6 C         138.9968  137.7015  162.8379 C.3     1  UNL1        0.0724
      7 C         138.4473  138.5162  165.2430 C.3     1  UNL1        0.0991
      8 C         139.6811  140.1306  168.6520 C.ar    1  UNL1        0.0137
      9 C         141.1315  140.3619  168.3475 C.ar    1  UNL1        0.0011
     10 C         141.6872  139.9780  167.0082 C.ar    1  UNL1       -0.0002
     11 C         140.7925  139.3627  165.9734 C.ar    1  UNL1       -0.0029
     12 C         139.3421  139.1314  166.2779 C.ar    1  UNL1       -0.0061
     13 C         138.7864  139.5154  167.6172 C.ar    1  UNL1       -0.0018
     14 O         139.7959  141.5826  170.8034 O.co2   1  UNL1       -0.5446
     15 C         139.1254  140.5145  169.9914 C.2     1  UNL1        0.0729
     16 O         137.8991  139.8303  170.5187 O.co2   1  UNL1       -0.5446
     17 C         139.3259  139.7048  159.4280 C.3     1  UNL1        0.0721
     18 N         140.2500  138.8447  158.6179 N.3     1  UNL1       -0.2724
     19 C         139.7260  138.0914  157.4313 C.3     1  UNL1        0.0758
     20 C         140.6500  137.2312  156.6212 C.3     1  UNL1        0.0609
     21 C         142.0980  137.1243  156.9977 C.3     1  UNL1        0.1687
     22 C         142.6221  137.8776  158.1843 C.3     1  UNL1        0.0609
     23 C         141.6981  138.7378  158.9944 C.3     1  UNL1        0.0758
     24 O         143.0221  136.2641  156.1876 O.3     1  UNL1       -0.4790
     25 C         142.9792  134.7720  156.3344 C.ar    1  UNL1        0.1393
     26 C         143.9277  134.0829  157.2701 C.ar    1  UNL1        0.0378
     27 C         143.8849  132.5907  157.4169 C.ar    1  UNL1        0.0154
     28 C         142.8935  131.7876  156.6281 C.ar    1  UNL1        0.0684
     29 CL        142.8507  130.2954  156.7749 Cl      1  UNL1       -0.0814
     30 C         141.9450  132.4767  155.6924 C.ar    1  UNL1        0.0712
     31 CL        140.9536  131.6737  154.9035 Cl      1  UNL1       -0.0813
     32 C         141.9879  133.9689  155.5456 C.ar    1  UNL1        0.0491
@<TRIPOS>UNITY_ATOM_ATTR
14 1
charge -1
@<TRIPOS>BOND
     1    14    15   ar
     2    15    16   ar
     3    15     8    1
     4     8     9   ar
     5     9    10   ar
     6    10    11   ar
     7    11    12   ar
     8    12     7    1
     9     7     1    1
    10     1     2    1
    11     2     3    1
    12     3     4    1
    13     4    17    1
    14    17    18    1
    15    18    19    1
    16    19    20    1
    17    20    21    1
    18    21    24    1
    19    24    25    1
    20    25    26   ar
    21    26    27   ar
    22    27    28   ar
    23    28    29    1
    24    28    30   ar
    25    30    31    1
    26    30    32   ar
    27    21    22    1
    28    22    23    1
    29     4     5    1
    30     5     6    1
    31    12    13   ar
    32    13     8   ar
    33     6     1    1
    34    23    18    1
    35    32    25   ar
@<TRIPOS>MOLECULE
*****
 32 35 0 0 0
SMALL
GASTEIGER

@<TRIPOS>ATOM
      1 N         138.7316  139.1547  163.6150 N.3     1  UNL1       -0.2690
      2 C         138.6668  137.9222  162.7625 C.3     1  UNL1        0.0724
      3 C         138.8368  138.0287  161.2759 C.3     1  UNL1        0.0188
      4 C         139.0716  139.3677  160.6419 C.3     1  UNL1        0.0188
      5 C         139.1363  140.6002  161.4944 C.3     1  UNL1        0.0188
      6 C         138.9664  140.4937  162.9809 C.3     1  UNL1        0.0724
      7 C         138.5616  139.0482  165.1015 C.3     1  UNL1        0.0991
      8 C         142.2746  139.0135  166.5023 C.ar    1  UNL1        0.0137
      9 C         142.0862  139.7016  167.8217 C.ar    1  UNL1        0.0011
     10 C         140.7230  140.1720  168.2344 C.ar    1  UNL1       -0.0002
     11 C         139.5481  139.9542  167.3277 C.ar    1  UNL1       -0.0029
     12 C         139.7365  139.2661  166.0083 C.ar    1  UNL1       -0.0061
     13 C         141.0997  138.7957  165.5956 C.ar    1  UNL1       -0.0018
     14 O         144.3930  137.5795  166.9563 O.co2   1  UNL1       -0.5446
     15 C         143.6378  138.5431  166.0896 C.2     1  UNL1        0.0729
     16 O         144.2459  139.0363  164.8102 O.co2   1  UNL1       -0.5446
     17 C         139.2416  139.4742  159.1554 C.3     1  UNL1        0.0721
     18 N         140.2500  138.6147  158.4524 N.3     1  UNL1       -0.2724
     19 C         139.8710  137.8896  157.1952 C.3     1  UNL1        0.0758
     20 C         140.8795  137.0300  156.4921 C.3     1  UNL1        0.0609
     21 C         142.2668  136.8956  157.0463 C.3     1  UNL1        0.1687
     22 C         142.6458  137.6207  158.3035 C.3     1  UNL1        0.0609
     23 C         141.6374  138.4802  159.0066 C.3     1  UNL1        0.0758
     24 O         143.2752  136.0360  156.3432 O.3     1  UNL1       -0.4790
     25 C         143.1569  134.5418  156.4001 C.ar    1  UNL1        0.1393
     26 C         142.0588  133.8474  155.6503 C.ar    1  UNL1        0.0378
     27 C         141.9404  132.3531  155.7072 C.ar    1  UNL1        0.0154
     28 C         142.9201  131.5533  156.5137 C.ar    1  UNL1        0.0684
     29 CL        142.8017  130.0591  156.5706 Cl      1  UNL1       -0.0814
     30 C         144.0182  132.2478  157.2635 C.ar    1  UNL1        0.0712
     31 CL        144.9978  131.4480  158.0700 Cl      1  UNL1       -0.0813
     32 C         144.1365  133.7420  157.2066 C.ar    1  UNL1        0.0491
@<TRIPOS>UNITY_ATOM_ATTR
14 1
charge -1
@<TRIPOS>BOND
     1    14    15   ar
     2    15    16   ar
     3    15     8    1
     4     8     9   ar
     5     9    10   ar
     6    10    11   ar
     7    11    12   ar
     8    12     7    1
     9     7     1    1
    10     1     2    1
    11     2     3    1
    12     3     4    1
    13     4    17    1
    14    17    18    1
    15    18    19    1
    16    19    20    1
    17    20    21    1
    18    21    24    1
    19    24    25    1
    20    25    26   ar
    21    26    27   ar
    22    27    28   ar
    23    28    29    1
    24    28    30   ar
    25    30    31    1
    26    30    32   ar
    27    21    22    1
    28    22    23    1
    29     4     5    1
    30     5     6    1
    31    12    13   ar
    32    13     8   ar
    33     6     1    1
    34    23    18    1
    35    32    25   ar
@<TRIPOS>MOLECULE
*****
 32 35 0 0 0
SMALL
GASTEIGER

@<TRIPOS>ATOM
      1 N         139.0217  138.9864  163.6560 N.3     1  UNL1       -0.2690
      2 C         139.9509  138.1841  162.7941 C.3     1  UNL1        0.0724
      3 C         140.2375  138.6235  161.3888 C.3     1  UNL1        0.0188
      4 C         139.5949  139.8652  160.8455 C.3     1  UNL1        0.0188
      5 C         138.6657  140.6675  161.7074 C.3     1  UNL1        0.0188
      6 C         138.3791  140.2281  163.1126 C.3     1  UNL1        0.0724
      7 C         138.7351  138.5470  165.0613 C.3     1  UNL1        0.0991
      8 C         139.6306  140.0859  168.6081 C.ar    1  UNL1        0.0137
      9 C         141.1164  140.2470  168.4803 C.ar    1  UNL1        0.0011
     10 C         141.8084  139.8415  167.2127 C.ar    1  UNL1       -0.0002
     11 C         141.0147  139.2748  166.0731 C.ar    1  UNL1       -0.0029
     12 C         139.5289  139.1137  166.2010 C.ar    1  UNL1       -0.0061
     13 C         138.8368  139.5192  167.4685 C.ar    1  UNL1       -0.0018
     14 O         137.8782  139.6101  170.4663 O.co2   1  UNL1       -0.5446
     15 C         138.9385  140.4914  169.8756 C.2     1  UNL1        0.0729
     16 O         139.3068  141.7784  170.5525 O.co2   1  UNL1       -0.5446
     17 C         139.8815  140.3045  159.4402 C.3     1  UNL1        0.0721
     18 N         140.5249  139.3547  158.4739 N.3     1  UNL1       -0.2724
     19 C         142.0027  139.4234  158.2262 C.3     1  UNL1        0.0758
     20 C         142.6461  138.4735  157.2599 C.3     1  UNL1        0.0609
     21 C         141.8118  137.4550  156.5413 C.3     1  UNL1        0.1687
     22 C         140.3339  137.3863  156.7890 C.3     1  UNL1        0.0609
     23 C         139.6905  138.3361  157.7553 C.3     1  UNL1        0.0758
     24 O         142.4552  136.5052  155.5750 O.3     1  UNL1       -0.4790
     25 C         142.6164  135.0591  155.9394 C.ar    1  UNL1        0.1393
     26 C         141.6627  134.0376  155.3946 C.ar    1  UNL1        0.0378
     27 C         141.8238  132.5914  155.7591 C.ar    1  UNL1        0.0154
     28 C         142.9386  132.1669  156.6684 C.ar    1  UNL1        0.0684
     29 CL        143.0997  130.7208  157.0329 Cl      1  UNL1       -0.0814
     30 C         143.8923  133.1885  157.2133 C.ar    1  UNL1        0.0712
     31 CL        145.0071  132.7639  158.1227 Cl      1  UNL1       -0.0813
     32 C         143.7312  134.6345  156.8488 C.ar    1  UNL1        0.0491
@<TRIPOS>UNITY_ATOM_ATTR
14 1
charge -1
@<TRIPOS>BOND
     1    14    15   ar
     2    15    16   ar
     3    15     8    1
     4     8     9   ar
     5     9    10   ar
     6    10    11   ar
     7    11    12   ar
     8    12     7    1
     9     7     1    1
    10     1     2    1
    11     2     3    1
    12     3     4    1
    13     4    17    1
    14    17    18    1
    15    18    19    1
    16    19    20    1
    17    20    21    1
    18    21    24    1
    19    24    25    1
    20    25    26   ar
    21    26    27   ar
    22    27    28   ar
    23    28    29    1
    24    28    30   ar
    25    30    31    1
    26    30    32   ar
    27    21    22    1
    28    22    23    1
    29     4     5    1
    30     5     6    1
    31    12    13   ar
    32    13     8   ar
    33     6     1    1
    34    23    18    1
    35    32    25   ar
@<TRIPOS>MOLECULE
*****
 32 35 0 0 0
SMALL
GASTEIGER

@<TRIPOS>ATOM
      1 N         138.7779  139.2656  165.2546 N.3     1  UNL1       -0.2690
      2 C         138.6416  140.5841  164.5525 C.3     1  UNL1        0.0724
      3 C         138.5920  140.6343  163.0541 C.3     1  UNL1        0.0188
      4 C         138.6786  139.3660  162.2579 C.3     1  UNL1        0.0188
      5 C         138.8149  138.0475  162.9600 C.3     1  UNL1        0.0188
      6 C         138.8645  137.9973  164.4584 C.3     1  UNL1        0.0724
      7 C         138.8276  139.2153  166.7529 C.3     1  UNL1        0.0991
      8 C         140.8003  141.3182  169.4799 C.ar    1  UNL1        0.0137
      9 C         142.2033  141.2104  168.9606 C.ar    1  UNL1        0.0011
     10 C         142.4812  140.4376  167.7054 C.ar    1  UNL1       -0.0002
     11 C         141.3559  139.7725  166.9695 C.ar    1  UNL1       -0.0029
     12 C         139.9529  139.8803  167.4888 C.ar    1  UNL1       -0.0061
     13 C         139.6750  140.6532  168.7440 C.ar    1  UNL1       -0.0018
     14 O         139.2224  142.8224  170.8933 O.co2   1  UNL1       -0.5446
     15 C         140.5224  142.0910  170.7351 C.2     1  UNL1        0.0729
     16 O         141.5446  142.1325  171.8321 O.co2   1  UNL1       -0.5446
     17 C         138.6289  139.4163  160.7596 C.3     1  UNL1        0.0721
     18 N         139.7827  138.8982  159.9532 N.3     1  UNL1       -0.2724
     19 C         139.6000  138.5856  158.4976 C.3     1  UNL1        0.0758
     20 C         140.7537  138.0675  157.6911 C.3     1  UNL1        0.0609
     21 C         142.0903  137.8621  158.3402 C.3     1  UNL1        0.1687
     22 C         142.2731  138.1747  159.7959 C.3     1  UNL1        0.0609
     23 C         141.1193  138.6928  160.6024 C.3     1  UNL1        0.0758
     24 O         143.2440  137.3440  157.5338 O.3     1  UNL1       -0.4790
     25 C         143.0559  136.1632  156.6281 C.ar    1  UNL1        0.1393
     26 C         142.8155  136.3730  155.1625 C.ar    1  UNL1        0.0378
     27 C         142.6273  135.1922  154.2567 C.ar    1  UNL1        0.0154
     28 C         142.6795  133.8016  154.8167 C.ar    1  UNL1        0.0684
     29 CL        142.4913  132.6208  153.9110 Cl      1  UNL1       -0.0814
     30 C         142.9198  133.5918  156.2824 C.ar    1  UNL1        0.0712
     31 CL        142.9720  132.2013  156.8424 Cl      1  UNL1       -0.0813
     32 C         143.1080  134.7726  157.1881 C.ar    1  UNL1        0.0491
@<TRIPOS>UNITY_ATOM_ATTR
14 1
charge -1
@<TRIPOS>BOND
     1    14    15   ar
     2    15    16   ar
     3    15     8    1
     4     8     9   ar
     5     9    10   ar
     6    10    11   ar
     7    11    12   ar
     8    12     7    1
     9     7     1    1
    10     1     2    1
    11     2     3    1
    12     3     4    1
    13     4    17    1
    14    17    18    1
    15    18    19    1
    16    19    20    1
    17    20    21    1
    18    21    24    1
    19    24    25    1
    20    25    26   ar
    21    26    27   ar
    22    27    28   ar
    23    28    29    1
    24    28    30   ar
    25    30    31    1
    26    30    32   ar
    27    21    22    1
    28    22    23    1
    29     4     5    1
    30     5     6    1
    31    12    13   ar
    32    13     8   ar
    33     6     1    1
    34    23    18    1
    35    32    25   ar
@<TRIPOS>MOLECULE
*****
 32 35 0 0 0
SMALL
GASTEIGER

@<TRIPOS>ATOM
      1 N         141.6515  138.4344  158.6962 N.3     1  UNL1       -0.2690
      2 C         140.3751  138.9870  158.1346 C.3     1  UNL1        0.0724
      3 C         139.1881  139.1901  159.0291 C.3     1  UNL1        0.0188
      4 C         139.2777  138.8406  160.4850 C.3     1  UNL1        0.0188
      5 C         140.5541  138.2880  161.0466 C.3     1  UNL1        0.0188
      6 C         141.7410  138.0849  160.1522 C.3     1  UNL1        0.0724
      7 C         142.8384  138.2313  157.8018 C.3     1  UNL1        0.0991
      8 C         143.2276  134.5249  156.4376 C.ar    1  UNL1        0.0137
      9 C         142.9542  134.7302  154.9771 C.ar    1  UNL1        0.0011
     10 C         142.6422  136.1026  154.4581 C.ar    1  UNL1       -0.0002
     11 C         142.6036  137.2696  155.3997 C.ar    1  UNL1       -0.0029
     12 C         142.8770  137.0642  156.8601 C.ar    1  UNL1       -0.0061
     13 C         143.1889  135.6919  157.3791 C.ar    1  UNL1       -0.0018
     14 O         142.8146  131.9600  156.4066 O.co2   1  UNL1       -0.5446
     15 C         143.5395  133.1525  156.9565 C.2     1  UNL1        0.0729
     16 O         144.5764  132.9726  158.0254 O.co2   1  UNL1       -0.5446
     17 C         138.0908  139.0437  161.3794 C.3     1  UNL1        0.0721
     18 N         138.2748  139.1086  162.8667 N.3     1  UNL1       -0.2724
     19 C         138.0304  140.3956  163.5972 C.3     1  UNL1        0.0758
     20 C         138.2143  140.4604  165.0845 C.3     1  UNL1        0.0609
     21 C         138.6427  139.2382  165.8412 C.3     1  UNL1        0.1687
     22 C         138.8872  137.9511  165.1107 C.3     1  UNL1        0.0609
     23 C         138.7032  137.8863  163.6234 C.3     1  UNL1        0.0758
     24 O         138.8267  139.3031  167.3285 O.3     1  UNL1       -0.4790
     25 C         140.0326  139.9829  167.9061 C.ar    1  UNL1        0.1393
     26 C         141.3198  140.0081  167.1365 C.ar    1  UNL1        0.0378
     27 C         142.5258  140.6879  167.7141 C.ar    1  UNL1        0.0154
     28 C         142.4445  141.3425  169.0613 C.ar    1  UNL1        0.0684
     29 CL        143.6503  142.0223  169.6389 Cl      1  UNL1       -0.0814
     30 C         141.1571  141.3172  169.8309 C.ar    1  UNL1        0.0712
     31 CL        141.0757  141.9718  171.1781 Cl      1  UNL1       -0.0813
     32 C         139.9512  140.6374  169.2533 C.ar    1  UNL1        0.0491
@<TRIPOS>UNITY_ATOM_ATTR
14 1
charge -1
@<TRIPOS>BOND
     1    14    15   ar
     2    15    16   ar
     3    15     8    1
     4     8     9   ar
     5     9    10   ar
     6    10    11   ar
     7    11    12   ar
     8    12     7    1
     9     7     1    1
    10     1     2    1
    11     2     3    1
    12     3     4    1
    13     4    17    1
    14    17    18    1
    15    18    19    1
    16    19    20    1
    17    20    21    1
    18    21    24    1
    19    24    25    1
    20    25    26   ar
    21    26    27   ar
    22    27    28   ar
    23    28    29    1
    24    28    30   ar
    25    30    31    1
    26    30    32   ar
    27    21    22    1
    28    22    23    1
    29     4     5    1
    30     5     6    1
    31    12    13   ar
    32    13     8   ar
    33     6     1    1
    34    23    18    1
    35    32    25   ar
@<TRIPOS>MOLECULE
*****
 32 35 0 0 0
SMALL
GASTEIGER

@<TRIPOS>ATOM
      1 N         142.6092  139.4802  164.9484 N.3     1  UNL1       -0.2690
      2 C         144.0737  139.4680  164.6243 C.3     1  UNL1        0.0724
      3 C         144.5383  139.8097  163.2395 C.3     1  UNL1        0.0188
      4 C         143.5383  140.1635  162.1789 C.3     1  UNL1        0.0188
      5 C         142.0738  140.1757  162.5030 C.3     1  UNL1        0.0188
      6 C         141.6092  139.8340  163.8877 C.3     1  UNL1        0.0724
      7 C         142.1446  139.1385  166.3331 C.3     1  UNL1        0.0991
      8 C         141.3134  141.0432  169.7141 C.ar    1  UNL1        0.0137
      9 C         142.1249  142.2930  169.5422 C.ar    1  UNL1        0.0011
     10 C         142.9430  142.4912  168.3007 C.ar    1  UNL1       -0.0002
     11 C         142.9496  141.4398  167.2310 C.ar    1  UNL1       -0.0029
     12 C         142.1381  140.1901  167.4028 C.ar    1  UNL1       -0.0061
     13 C         141.3200  139.9918  168.6443 C.ar    1  UNL1       -0.0018
     14 O         139.6125  139.6395  171.0875 O.co2   1  UNL1       -0.5446
     15 C         140.4953  140.8450  170.9556 C.2     1  UNL1        0.0729
     16 O         140.5600  141.8522  172.0652 O.co2   1  UNL1       -0.5446
     17 C         144.0029  140.5052  160.7942 C.3     1  UNL1        0.0721
     18 N         143.5749  139.6617  159.6301 N.3     1  UNL1       -0.2724
     19 C         142.9858  138.3024  159.8651 C.3     1  UNL1        0.0758
     20 C         142.5578  137.4589  158.7009 C.3     1  UNL1        0.0609
     21 C         142.7189  137.9747  157.3017 C.3     1  UNL1        0.1687
     22 C         143.3080  139.3341  157.0665 C.3     1  UNL1        0.0609
     23 C         143.7360  140.1776  158.2307 C.3     1  UNL1        0.0758
     24 O         142.2909  137.1312  156.1375 O.3     1  UNL1       -0.4790
     25 C         142.4077  135.6376  156.2104 C.ar    1  UNL1        0.1393
     26 C         141.4103  134.7718  155.4994 C.ar    1  UNL1        0.0378
     27 C         141.5271  133.2780  155.5722 C.ar    1  UNL1        0.0154
     28 C         142.6413  132.6503  156.3561 C.ar    1  UNL1        0.0684
     29 CL        142.7581  131.1566  156.4290 Cl      1  UNL1       -0.0814
     30 C         143.6387  133.5162  157.0671 C.ar    1  UNL1        0.0712
     31 CL        144.7529  132.8884  157.8510 Cl      1  UNL1       -0.0813
     32 C         143.5219  135.0098  156.9942 C.ar    1  UNL1        0.0491
@<TRIPOS>UNITY_ATOM_ATTR
14 1
charge -1
@<TRIPOS>BOND
     1    14    15   ar
     2    15    16   ar
     3    15     8    1
     4     8     9   ar
     5     9    10   ar
     6    10    11   ar
     7    11    12   ar
     8    12     7    1
     9     7     1    1
    10     1     2    1
    11     2     3    1
    12     3     4    1
    13     4    17    1
    14    17    18    1
    15    18    19    1
    16    19    20    1
    17    20    21    1
    18    21    24    1
    19    24    25    1
    20    25    26   ar
    21    26    27   ar
    22    27    28   ar
    23    28    29    1
    24    28    30   ar
    25    30    31    1
    26    30    32   ar
    27    21    22    1
    28    22    23    1
    29     4     5    1
    30     5     6    1
    31    12    13   ar
    32    13     8   ar
    33     6     1    1
    34    23    18    1
    35    32    25   ar
@<TRIPOS>MOLECULE
*****
 32 35 0 0 0
SMALL
GASTEIGER

@<TRIPOS>ATOM
      1 N         142.1773  137.0284  157.0867 N.3     1  UNL1       -0.2690
      2 C         140.7543  137.1534  156.6289 C.3     1  UNL1        0.0724
      3 C         139.7973  138.0270  157.3847 C.3     1  UNL1        0.0188
      4 C         140.2633  138.7755  158.5981 C.3     1  UNL1        0.0188
      5 C         141.6863  138.6505  159.0559 C.3     1  UNL1        0.0188
      6 C         142.6432  137.7770  158.3002 C.3     1  UNL1        0.0724
      7 C         143.1343  136.1549  156.3310 C.3     1  UNL1        0.0991
      8 C         141.8872  132.4887  155.4626 C.ar    1  UNL1        0.0137
      9 C         142.6724  131.6803  156.4525 C.ar    1  UNL1        0.0011
     10 C         143.6116  132.3634  157.4019 C.ar    1  UNL1       -0.0002
     11 C         143.7655  133.8549  157.3614 C.ar    1  UNL1       -0.0029
     12 C         142.9803  134.6633  156.3716 C.ar    1  UNL1       -0.0061
     13 C         142.0412  133.9802  155.4221 C.ar    1  UNL1       -0.0018
     14 O         140.2320  130.5569  154.9350 O.co2   1  UNL1       -0.5446
     15 C         140.9481  131.8056  154.5132 C.2     1  UNL1        0.0729
     16 O         140.7250  132.3712  153.1420 O.co2   1  UNL1       -0.5446
     17 C         139.3063  139.6491  159.3538 C.3     1  UNL1        0.0721
     18 N         139.0631  139.4073  160.8141 N.3     1  UNL1       -0.2724
     19 C         139.1840  138.0215  161.3751 C.3     1  UNL1        0.0758
     20 C         138.9409  137.7797  162.8354 C.3     1  UNL1        0.0609
     21 C         138.5767  138.9237  163.7346 C.3     1  UNL1        0.1687
     22 C         138.4558  140.3096  163.1735 C.3     1  UNL1        0.0609
     23 C         138.6990  140.5514  161.7133 C.3     1  UNL1        0.0758
     24 O         138.3336  138.6819  165.1949 O.3     1  UNL1       -0.4790
     25 C         139.3168  139.1812  166.2117 C.ar    1  UNL1        0.1393
     26 C         140.7734  139.2711  165.8653 C.ar    1  UNL1        0.0378
     27 C         141.7567  139.7704  166.8822 C.ar    1  UNL1        0.0154
     28 C         141.2832  140.1798  168.2454 C.ar    1  UNL1        0.0684
     29 CL        142.2664  140.6791  169.2622 Cl      1  UNL1       -0.0814
     30 C         139.8265  140.0899  168.5917 C.ar    1  UNL1        0.0712
     31 CL        139.3530  140.4993  169.9549 Cl      1  UNL1       -0.0813
     32 C         138.8433  139.5906  167.5749 C.ar    1  UNL1        0.0491
@<TRIPOS>UNITY_ATOM_ATTR
14 1
charge -1
@<TRIPOS>BOND
     1    14    15   ar
     2    15    16   ar
     3    15     8    1
     4     8     9   ar
     5     9    10   ar
     6    10    11   ar
     7    11    12   ar
     8    12     7    1
     9     7     1    1
    10     1     2    1
    11     2     3    1
    12     3     4    1
    13     4    17    1
    14    17    18    1
    15    18    19    1
    16    19    20    1
    17    20    21    1
    18    21    24    1
    19    24    25    1
    20    25    26   ar
    21    26    27   ar
    22    27    28   ar
    23    28    29    1
    24    28    30   ar
    25    30    31    1
    26    30    32   ar
    27    21    22    1
    28    22    23    1
    29     4     5    1
    30     5     6    1
    31    12    13   ar
    32    13     8   ar
    33     6     1    1
    34    23    18    1
    35    32    25   ar
@<TRIPOS>MOLECULE
*****
 32 35 0 0 0
SMALL
GASTEIGER

@<TRIPOS>ATOM
      1 N         138.6698  139.1252  165.5755 N.3     1  UNL1       -0.2690
      2 C         139.0431  137.8328  164.9118 C.3     1  UNL1        0.0724
      3 C         138.8595  137.6692  163.4320 C.3     1  UNL1        0.0188
      4 C         138.3027  138.7980  162.6161 C.3     1  UNL1        0.0188
      5 C         137.9294  140.0903  163.2798 C.3     1  UNL1        0.0188
      6 C         138.1130  140.2539  164.7594 C.3     1  UNL1        0.0724
      7 C         138.8534  139.2888  167.0552 C.3     1  UNL1        0.0991
      8 C         140.7646  141.8113  169.4498 C.ar    1  UNL1        0.0137
      9 C         141.9908  142.1009  168.6359 C.ar    1  UNL1        0.0011
     10 C         142.1712  141.4531  167.2951 C.ar    1  UNL1       -0.0002
     11 C         141.1255  140.5158  166.7682 C.ar    1  UNL1       -0.0029
     12 C         139.8993  140.2262  167.5821 C.ar    1  UNL1       -0.0061
     13 C         139.7188  140.8739  168.9229 C.ar    1  UNL1       -0.0018
     14 O         141.6598  142.3446  171.8298 O.co2   1  UNL1       -0.5446
     15 C         140.5841  142.4591  170.7907 C.2     1  UNL1        0.0729
     16 O         139.3280  143.2213  171.0924 O.co2   1  UNL1       -0.5446
     17 C         138.1191  138.6344  161.1364 C.3     1  UNL1        0.0721
     18 N         138.8491  139.5362  160.1858 N.3     1  UNL1       -0.2724
     19 C         140.3054  139.8271  160.3967 C.3     1  UNL1        0.0758
     20 C         141.0355  140.7290  159.4461 C.3     1  UNL1        0.0609
     21 C         140.3092  141.3400  158.2846 C.3     1  UNL1        0.1687
     22 C         138.8528  141.0491  158.0736 C.3     1  UNL1        0.0609
     23 C         138.1228  140.1473  159.0242 C.3     1  UNL1        0.0758
     24 O         141.0393  142.2419  157.3340 O.3     1  UNL1       -0.4790
     25 C         140.5211  143.6232  157.0631 C.ar    1  UNL1        0.1393
     26 C         141.1014  144.7983  157.7926 C.ar    1  UNL1        0.0378
     27 C         140.5833  146.1797  157.5218 C.ar    1  UNL1        0.0154
     28 C         139.4848  146.3859  156.5214 C.ar    1  UNL1        0.0684
     29 CL        138.9667  147.7673  156.2505 Cl      1  UNL1       -0.0814
     30 C         138.9045  145.2107  155.7918 C.ar    1  UNL1        0.0712
     31 CL        137.8060  145.4169  154.7914 Cl      1  UNL1       -0.0813
     32 C         139.4226  143.8294  156.0627 C.ar    1  UNL1        0.0491
@<TRIPOS>UNITY_ATOM_ATTR
14 1
charge -1
@<TRIPOS>BOND
     1    14    15   ar
     2    15    16   ar
     3    15     8    1
     4     8     9   ar
     5     9    10   ar
     6    10    11   ar
     7    11    12   ar
     8    12     7    1
     9     7     1    1
    10     1     2    1
    11     2     3    1
    12     3     4    1
    13     4    17    1
    14    17    18    1
    15    18    19    1
    16    19    20    1
    17    20    21    1
    18    21    24    1
    19    24    25    1
    20    25    26   ar
    21    26    27   ar
    22    27    28   ar
    23    28    29    1
    24    28    30   ar
    25    30    31    1
    26    30    32   ar
    27    21    22    1
    28    22    23    1
    29     4     5    1
    30     5     6    1
    31    12    13   ar
    32    13     8   ar
    33     6     1    1
    34    23    18    1
    35    32    25   ar
@<TRIPOS>MOLECULE
*****
 32 35 0 0 0
SMALL
GASTEIGER

@<TRIPOS>ATOM
      1 N         140.7652  141.8979  164.6904 N.3     1  UNL1       -0.2690
      2 C         141.4749  143.2004  164.9136 C.3     1  UNL1        0.0724
      3 C         142.1326  143.9030  163.7630 C.3     1  UNL1        0.0188
      4 C         142.0806  143.3031  162.3892 C.3     1  UNL1        0.0188
      5 C         141.3709  142.0006  162.1660 C.3     1  UNL1        0.0188
      6 C         140.7132  141.2980  163.3165 C.3     1  UNL1        0.0724
      7 C         140.1076  141.1953  165.8409 C.3     1  UNL1        0.0991
      8 C         140.9272  141.8945  169.6606 C.ar    1  UNL1        0.0137
      9 C         142.1485  141.0443  169.8487 C.ar    1  UNL1        0.0011
     10 C         142.6896  140.2444  168.7008 C.ar    1  UNL1       -0.0002
     11 C         142.0093  140.2947  167.3650 C.ar    1  UNL1       -0.0029
     12 C         140.7879  141.1450  167.1769 C.ar    1  UNL1       -0.0061
     13 C         140.2469  141.9448  168.3247 C.ar    1  UNL1       -0.0018
     14 O         139.7824  144.0453  170.5625 O.co2   1  UNL1       -0.5446
     15 C         140.3862  142.6944  170.8084 C.2     1  UNL1        0.0729
     16 O         140.4489  142.1434  172.2021 O.co2   1  UNL1       -0.5446
     17 C         142.7382  144.0057  161.2386 C.3     1  UNL1        0.0721
     18 N         141.9638  144.2748  159.9825 N.3     1  UNL1       -0.2724
     19 C         142.3799  143.6322  158.6926 C.3     1  UNL1        0.0758
     20 C         141.6055  143.9013  157.4365 C.3     1  UNL1        0.0609
     21 C         140.4149  144.8130  157.4703 C.3     1  UNL1        0.1687
     22 C         139.9987  145.4557  158.7602 C.3     1  UNL1        0.0609
     23 C         140.7731  145.1866  160.0163 C.3     1  UNL1        0.0758
     24 O         139.6404  145.0821  156.2142 O.3     1  UNL1       -0.4790
     25 C         139.7093  146.4328  155.5655 C.ar    1  UNL1        0.1393
     26 C         140.5680  146.6396  154.3531 C.ar    1  UNL1        0.0378
     27 C         140.6369  147.9903  153.7044 C.ar    1  UNL1        0.0154
     28 C         139.8471  149.1342  154.2680 C.ar    1  UNL1        0.0684
     29 CL        139.9160  150.4849  153.6193 Cl      1  UNL1       -0.0814
     30 C         138.9884  148.9274  155.4804 C.ar    1  UNL1        0.0712
     31 CL        138.1985  150.0713  156.0440 Cl      1  UNL1       -0.0813
     32 C         138.9195  147.5767  156.1291 C.ar    1  UNL1        0.0491
@<TRIPOS>UNITY_ATOM_ATTR
14 1
charge -1
@<TRIPOS>BOND
     1    14    15   ar
     2    15    16   ar
     3    15     8    1
     4     8     9   ar
     5     9    10   ar
     6    10    11   ar
     7    11    12   ar
     8    12     7    1
     9     7     1    1
    10     1     2    1
    11     2     3    1
    12     3     4    1
    13     4    17    1
    14    17    18    1
    15    18    19    1
    16    19    20    1
    17    20    21    1
    18    21    24    1
    19    24    25    1
    20    25    26   ar
    21    26    27   ar
    22    27    28   ar
    23    28    29    1
    24    28    30   ar
    25    30    31    1
    26    30    32   ar
    27    21    22    1
    28    22    23    1
    29     4     5    1
    30     5     6    1
    31    12    13   ar
    32    13     8   ar
    33     6     1    1
    34    23    18    1
    35    32    25   ar
