@<TRIPOS>MOLECULE
*****
 35 39 0 0 0
SMALL
GASTEIGER

@<TRIPOS>ATOM
      1 C         138.6137  139.6439  164.7149 C.ar    1  UNL1        0.1564
      2 C         138.9691  138.1978  164.5342 C.ar    1  UNL1        0.0385
      3 C         139.1838  137.6447  163.1566 C.ar    1  UNL1        0.0033
      4 C         139.0432  138.5377  161.9596 C.ar    1  UNL1        0.0048
      5 C         138.6878  139.9837  162.1402 C.ar    1  UNL1        0.0567
      6 C         138.4731  140.5368  163.5179 C.ar    1  UNL1        0.1209
      7 N         138.1177  141.9829  163.6985 N.ar    1  UNL1       -0.2108
      8 C         137.9770  142.8758  162.5015 C.ar    1  UNL1        0.2163
      9 N         137.6216  144.3219  162.6822 N.pl3   1  UNL1       -0.3274
     10 N         138.1918  142.3227  161.1239 N.ar    1  UNL1       -0.1813
     11 N         138.1227  142.9562  159.7660 N.ar    1  UNL1       -0.1451
     12 C         138.4354  141.9016  158.7461 C.ar    1  UNL1        0.1769
     13 N         138.6977  140.6164  159.4737 N.ar    1  UNL1       -0.2086
     14 C         138.5472  140.8767  160.9432 C.ar    1  UNL1        0.1695
     15 H         137.4807  144.6849  163.5864 H       1  UNL1        0.1452
     16 H         137.5293  144.9080  161.8965 H       1  UNL1        0.1452
     17 C         138.8970  139.4427  167.2896 C.3     1  UNL1        0.2525
     18 O         138.3989  140.1969  166.0926 O.3     1  UNL1       -0.4699
     19 C         138.4782  142.0978  157.2595 C.3     1  UNL1        0.1408
     20 N         138.7130  143.4655  156.6900 N.3     1  UNL1       -0.2644
     21 C         139.9173  144.2557  157.1087 C.3     1  UNL1        0.0941
     22 C         140.1521  145.6234  156.5392 C.3     1  UNL1        0.1082
     23 N         139.1825  146.2009  155.5510 N.pl3   1  UNL1       -0.3023
     24 C         137.9783  145.4107  155.1323 C.3     1  UNL1        0.1068
     25 C         137.7435  144.0430  155.7018 C.3     1  UNL1        0.0777
     26 C         136.5392  143.2528  155.2832 C.3     1  UNL1        0.0192
     27 C         139.4173  147.5685  154.9815 C.ar    1  UNL1        0.0881
     28 C         140.2902  147.8964  153.8065 C.ar    1  UNL1        0.1361
     29 N         140.2328  149.3790  153.5858 N.ar    1  UNL1       -0.1664
     30 N         139.3244  149.9674  154.6243 N.ar    1  UNL1       -0.2518
     31 C         138.8203  148.8485  155.4870 C.ar    1  UNL1        0.1110
     32 C         138.9803  151.4197  154.7740 C.3     1  UNL1        0.0867
     33 C         138.8780  151.2423  156.2601 C.3     1  UNL1        0.0244
     34 C         139.0827  151.5971  153.2881 C.3     1  UNL1        0.0244
     35 C         138.6363  152.8720  154.9238 C.3     1  UNL1        0.0244
@<TRIPOS>BOND
     1    17    18    1
     2    18     1    1
     3     1     2   ar
     4     2     3   ar
     5     3     4   ar
     6     4     5   ar
     7     5     6   ar
     8     6     7   ar
     9     7     8   ar
    10     8     9    1
    11     8    10   ar
    12    10    11   ar
    13    11    12   ar
    14    12    19    1
    15    19    20    1
    16    20    21    1
    17    21    22    1
    18    22    23    1
    19    23    27    1
    20    27    28   ar
    21    28    29   ar
    22    29    30   ar
    23    30    32    1
    24    32    33    1
    25    32    34    1
    26    32    35    1
    27    30    31   ar
    28    23    24    1
    29    24    25    1
    30    25    26    1
    31    12    13   ar
    32    13    14   ar
    33     6     1   ar
    34    14    10   ar
    35    14     5   ar
    36    25    20    1
    37    31    27   ar
    38     9    15    1
    39     9    16    1
@<TRIPOS>MOLECULE
*****
 35 39 0 0 0
SMALL
GASTEIGER

@<TRIPOS>ATOM
      1 C         140.6018  140.9650  169.3821 C.ar    1  UNL1        0.1564
      2 C         141.2333  139.8497  170.1613 C.ar    1  UNL1        0.0385
      3 C         142.3202  139.0230  169.5408 C.ar    1  UNL1        0.0033
      4 C         142.7757  139.3115  168.1411 C.ar    1  UNL1        0.0048
      5 C         142.1442  140.4269  167.3619 C.ar    1  UNL1        0.0567
      6 C         141.0572  141.2536  167.9824 C.ar    1  UNL1        0.1209
      7 N         140.4257  142.3690  167.2031 N.ar    1  UNL1       -0.2108
      8 C         140.8812  142.6576  165.8034 C.ar    1  UNL1        0.2163
      9 N         140.2497  143.7729  165.0241 N.pl3   1  UNL1       -0.3274
     10 N         141.9682  141.8308  165.1829 N.ar    1  UNL1       -0.1813
     11 N         142.6200  141.8800  163.8328 N.ar    1  UNL1       -0.1451
     12 C         143.6543  140.7950  163.7776 C.ar    1  UNL1        0.1769
     13 N         143.6417  140.0753  165.0936 N.ar    1  UNL1       -0.2086
     14 C         142.5997  140.7155  165.9621 C.ar    1  UNL1        0.1695
     15 H         139.5363  144.3156  165.4313 H       1  UNL1        0.1452
     16 H         140.5487  143.9623  164.1054 H       1  UNL1        0.1452
     17 C         139.8510  143.0896  170.6752 C.3     1  UNL1        0.2525
     18 O         139.5148  141.7918  170.0026 O.3     1  UNL1       -0.4699
     19 C         144.5448  140.4843  162.6112 C.3     1  UNL1        0.1408
     20 N         144.0020  139.7314  161.4329 N.3     1  UNL1       -0.2644
     21 C         143.6849  138.2705  161.5577 C.3     1  UNL1        0.0941
     22 C         143.1421  137.5176  160.3793 C.3     1  UNL1        0.1082
     23 N         142.9165  138.2255  159.0762 N.pl3   1  UNL1       -0.3023
     24 C         143.2336  139.6862  158.9515 C.3     1  UNL1        0.1068
     25 C         143.7764  140.4392  160.1298 C.3     1  UNL1        0.0777
     26 C         144.0935  141.8999  160.0051 C.3     1  UNL1        0.0192
     27 C         142.3737  137.4726  157.8979 C.ar    1  UNL1        0.0881
     28 C         141.2351  137.9062  157.0229 C.ar    1  UNL1        0.1361
     29 N         141.0319  136.8554  155.9718 N.ar    1  UNL1       -0.1664
     30 N         142.0449  135.7724  156.1973 N.ar    1  UNL1       -0.2518
     31 C         142.8742  136.1537  157.3876 C.ar    1  UNL1        0.1110
     32 C         142.2012  134.5266  155.3765 C.3     1  UNL1        0.0867
     33 C         142.8922  133.8556  156.5265 C.3     1  UNL1        0.0244
     34 C         141.5103  135.1976  154.2266 C.3     1  UNL1        0.0244
     35 C         142.3575  133.2809  154.5558 C.3     1  UNL1        0.0244
@<TRIPOS>BOND
     1    17    18    1
     2    18     1    1
     3     1     2   ar
     4     2     3   ar
     5     3     4   ar
     6     4     5   ar
     7     5     6   ar
     8     6     7   ar
     9     7     8   ar
    10     8     9    1
    11     8    10   ar
    12    10    11   ar
    13    11    12   ar
    14    12    19    1
    15    19    20    1
    16    20    21    1
    17    21    22    1
    18    22    23    1
    19    23    27    1
    20    27    28   ar
    21    28    29   ar
    22    29    30   ar
    23    30    32    1
    24    32    33    1
    25    32    34    1
    26    32    35    1
    27    30    31   ar
    28    23    24    1
    29    24    25    1
    30    25    26    1
    31    12    13   ar
    32    13    14   ar
    33     6     1   ar
    34    14    10   ar
    35    14     5   ar
    36    25    20    1
    37    31    27   ar
    38     9    15    1
    39     9    16    1
@<TRIPOS>MOLECULE
*****
 35 39 0 0 0
SMALL
GASTEIGER

@<TRIPOS>ATOM
      1 C         143.9268  130.7594  155.0854 C.ar    1  UNL1        0.1564
      2 C         144.5833  130.1788  156.3028 C.ar    1  UNL1        0.0385
      3 C         144.7873  131.0283  157.5221 C.ar    1  UNL1        0.0033
      4 C         144.3348  132.4584  157.5241 C.ar    1  UNL1        0.0048
      5 C         143.6783  133.0390  156.3067 C.ar    1  UNL1        0.0567
      6 C         143.4743  132.1895  155.0874 C.ar    1  UNL1        0.1209
      7 N         142.8178  132.7701  153.8701 N.ar    1  UNL1       -0.2108
      8 C         142.3653  134.2002  153.8720 C.ar    1  UNL1        0.2163
      9 N         141.7088  134.7809  152.6547 N.pl3   1  UNL1       -0.3274
     10 N         142.5693  135.0497  155.0913 N.ar    1  UNL1       -0.1813
     11 N         142.2300  136.4809  155.3858 N.ar    1  UNL1       -0.1451
     12 C         142.6768  136.7848  156.7851 C.ar    1  UNL1        0.1769
     13 N         143.2923  135.5414  157.3555 N.ar    1  UNL1       -0.2086
     14 C         143.2258  134.4692  156.3087 C.ar    1  UNL1        0.1695
     15 H         141.5749  134.2233  151.8544 H       1  UNL1        0.1452
     16 H         141.4118  135.7195  152.6560 H       1  UNL1        0.1452
     17 C         144.9062  129.3315  153.1485 C.3     1  UNL1        0.2525
     18 O         143.7228  129.9099  153.8661 O.3     1  UNL1       -0.4699
     19 C         142.5334  138.1009  157.4902 C.3     1  UNL1        0.1408
     20 N         141.9272  138.1551  158.8612 N.3     1  UNL1       -0.2644
     21 C         142.7642  137.8358  160.0644 C.3     1  UNL1        0.0941
     22 C         142.1581  137.8899  161.4354 C.3     1  UNL1        0.1082
     23 N         140.7150  138.2634  161.6033 N.pl3   1  UNL1       -0.3023
     24 C         139.8781  138.5827  160.4001 C.3     1  UNL1        0.1068
     25 C         140.4842  138.5285  159.0291 C.3     1  UNL1        0.0777
     26 C         139.6473  138.8478  157.8259 C.3     1  UNL1        0.0192
     27 C         140.1089  138.3175  162.9743 C.ar    1  UNL1        0.0881
     28 C         138.9574  137.4895  163.4626 C.ar    1  UNL1        0.1361
     29 N         138.6847  137.8694  164.8878 N.ar    1  UNL1       -0.1664
     30 N         139.6676  138.9323  165.2804 N.ar    1  UNL1       -0.2518
     31 C         140.5478  139.2093  164.0978 C.ar    1  UNL1        0.1110
     32 C         139.7549  139.6009  166.6203 C.3     1  UNL1        0.0867
     33 C         138.3238  139.2432  166.8922 C.3     1  UNL1        0.0244
     34 C         141.1861  139.9586  166.3484 C.3     1  UNL1        0.0244
     35 C         139.8423  140.2695  167.9601 C.3     1  UNL1        0.0244
@<TRIPOS>BOND
     1    17    18    1
     2    18     1    1
     3     1     2   ar
     4     2     3   ar
     5     3     4   ar
     6     4     5   ar
     7     5     6   ar
     8     6     7   ar
     9     7     8   ar
    10     8     9    1
    11     8    10   ar
    12    10    11   ar
    13    11    12   ar
    14    12    19    1
    15    19    20    1
    16    20    21    1
    17    21    22    1
    18    22    23    1
    19    23    27    1
    20    27    28   ar
    21    28    29   ar
    22    29    30   ar
    23    30    32    1
    24    32    33    1
    25    32    34    1
    26    32    35    1
    27    30    31   ar
    28    23    24    1
    29    24    25    1
    30    25    26    1
    31    12    13   ar
    32    13    14   ar
    33     6     1   ar
    34    14    10   ar
    35    14     5   ar
    36    25    20    1
    37    31    27   ar
    38     9    15    1
    39     9    16    1
@<TRIPOS>MOLECULE
*****
 35 39 0 0 0
SMALL
GASTEIGER

@<TRIPOS>ATOM
      1 C         141.1442  131.4257  154.3792 C.ar    1  UNL1        0.1564
      2 C         140.5816  131.5396  152.9934 C.ar    1  UNL1        0.0385
      3 C         140.7288  132.8207  152.2272 C.ar    1  UNL1        0.0033
      4 C         141.4385  133.9879  152.8467 C.ar    1  UNL1        0.0048
      5 C         142.0011  133.8740  154.2325 C.ar    1  UNL1        0.0567
      6 C         141.8539  132.5929  154.9988 C.ar    1  UNL1        0.1209
      7 N         142.4165  132.4790  156.3846 N.ar    1  UNL1       -0.2108
      8 C         143.1262  133.6462  157.0042 C.ar    1  UNL1        0.2163
      9 N         143.6889  133.5323  158.3901 N.pl3   1  UNL1       -0.3274
     10 N         143.2734  134.9273  156.2380 N.ar    1  UNL1       -0.1813
     11 N         143.9178  136.2365  156.5857 N.ar    1  UNL1       -0.1451
     12 C         143.7534  137.1594  155.4148 C.ar    1  UNL1        0.1769
     13 N         143.0075  136.4207  154.3433 N.ar    1  UNL1       -0.2086
     14 C         142.7109  135.0412  154.8522 C.ar    1  UNL1        0.1695
     15 H         143.5923  132.6915  158.8930 H       1  UNL1        0.1452
     16 H         144.1547  134.2984  158.7967 H       1  UNL1        0.1452
     17 C         139.7576  129.3146  154.9880 C.3     1  UNL1        0.2525
     18 O         140.9970  130.1446  155.1454 O.3     1  UNL1       -0.4699
     19 C         144.2482  138.5730  155.3301 C.3     1  UNL1        0.1408
     20 N         144.0839  139.4965  156.5006 N.3     1  UNL1       -0.2644
     21 C         143.0086  139.2387  157.5142 C.3     1  UNL1        0.0941
     22 C         142.8443  140.1621  158.6848 C.3     1  UNL1        0.1082
     23 N         143.7554  141.3435  158.8417 N.pl3   1  UNL1       -0.3023
     24 C         144.8306  141.6012  157.8282 C.3     1  UNL1        0.1068
     25 C         144.9949  140.6777  156.6576 C.3     1  UNL1        0.0777
     26 C         146.0702  140.9355  155.6441 C.3     1  UNL1        0.0192
     27 C         143.5911  142.2669  160.0123 C.ar    1  UNL1        0.0881
     28 C         142.7915  143.5359  160.0288 C.ar    1  UNL1        0.1361
     29 N         142.9038  144.1368  161.3986 N.ar    1  UNL1       -0.1664
     30 N         143.7729  143.2392  162.2287 N.ar    1  UNL1       -0.2518
     31 C         144.1977  142.0835  161.3719 C.ar    1  UNL1        0.1110
     32 C         144.1508  143.4587  163.6636 C.3     1  UNL1        0.0867
     33 C         143.7354  144.8959  163.5532 C.3     1  UNL1        0.0244
     34 C         144.5663  142.0216  163.7740 C.3     1  UNL1        0.0244
     35 C         144.5288  143.6782  165.0985 C.3     1  UNL1        0.0244
@<TRIPOS>BOND
     1    17    18    1
     2    18     1    1
     3     1     2   ar
     4     2     3   ar
     5     3     4   ar
     6     4     5   ar
     7     5     6   ar
     8     6     7   ar
     9     7     8   ar
    10     8     9    1
    11     8    10   ar
    12    10    11   ar
    13    11    12   ar
    14    12    19    1
    15    19    20    1
    16    20    21    1
    17    21    22    1
    18    22    23    1
    19    23    27    1
    20    27    28   ar
    21    28    29   ar
    22    29    30   ar
    23    30    32    1
    24    32    33    1
    25    32    34    1
    26    32    35    1
    27    30    31   ar
    28    23    24    1
    29    24    25    1
    30    25    26    1
    31    12    13   ar
    32    13    14   ar
    33     6     1   ar
    34    14    10   ar
    35    14     5   ar
    36    25    20    1
    37    31    27   ar
    38     9    15    1
    39     9    16    1
@<TRIPOS>MOLECULE
*****
 35 39 0 0 0
SMALL
GASTEIGER

@<TRIPOS>ATOM
      1 C         141.1977  141.5392  169.1227 C.ar    1  UNL1        0.1564
      2 C         142.4638  142.2813  168.8130 C.ar    1  UNL1        0.0385
      3 C         143.0885  142.1644  167.4542 C.ar    1  UNL1        0.0033
      4 C         142.4469  141.3053  166.4053 C.ar    1  UNL1        0.0048
      5 C         141.1808  140.5632  166.7150 C.ar    1  UNL1        0.0567
      6 C         140.5561  140.6802  168.0738 C.ar    1  UNL1        0.1209
      7 N         139.2899  139.9380  168.3835 N.ar    1  UNL1       -0.2108
      8 C         138.6484  139.0789  167.3345 C.ar    1  UNL1        0.2163
      9 N         137.3821  138.3367  167.6443 N.pl3   1  UNL1       -0.3274
     10 N         139.2730  138.9620  165.9758 N.ar    1  UNL1       -0.1813
     11 N         138.8724  138.1967  164.7495 N.ar    1  UNL1       -0.1451
     12 C         139.8911  138.4659  163.6818 C.ar    1  UNL1        0.1769
     13 N         140.9212  139.3975  164.2483 N.ar    1  UNL1       -0.2086
     14 C         140.5392  139.7041  165.6660 C.ar    1  UNL1        0.1695
     15 H         136.9721  138.4134  168.5360 H       1  UNL1        0.1452
     16 H         136.9610  137.7729  166.9558 H       1  UNL1        0.1452
     17 C         139.6472  142.7965  170.7857 C.3     1  UNL1        0.2525
     18 O         140.5730  141.6562  170.4815 O.3     1  UNL1       -0.4699
     19 C         139.8813  137.9024  162.2916 C.3     1  UNL1        0.1408
     20 N         139.3125  138.7065  161.1604 N.3     1  UNL1       -0.2644
     21 C         137.9049  139.2193  161.2382 C.3     1  UNL1        0.0941
     22 C         137.3361  140.0235  160.1069 C.3     1  UNL1        0.1082
     23 N         138.1748  140.3149  158.8979 N.pl3   1  UNL1       -0.3023
     24 C         139.5823  139.8021  158.8201 C.3     1  UNL1        0.1068
     25 C         140.1511  138.9980  159.9514 C.3     1  UNL1        0.0777
     26 C         141.5586  138.4852  159.8737 C.3     1  UNL1        0.0192
     27 C         137.6060  141.1191  157.7666 C.ar    1  UNL1        0.0881
     28 C         137.8480  142.5774  157.5125 C.ar    1  UNL1        0.1361
     29 N         137.0869  142.9658  156.2797 N.ar    1  UNL1       -0.1664
     30 N         136.3744  141.7474  155.7718 N.ar    1  UNL1       -0.2518
     31 C         136.6952  140.6060  156.6908 C.ar    1  UNL1        0.1110
     32 C         135.4955  141.6818  154.5581 C.3     1  UNL1        0.0867
     33 C         136.5821  142.3106  153.7371 C.3     1  UNL1        0.0244
     34 C         134.4088  141.0530  155.3790 C.3     1  UNL1        0.0244
     35 C         134.6165  141.6162  153.3444 C.3     1  UNL1        0.0244
@<TRIPOS>BOND
     1    17    18    1
     2    18     1    1
     3     1     2   ar
     4     2     3   ar
     5     3     4   ar
     6     4     5   ar
     7     5     6   ar
     8     6     7   ar
     9     7     8   ar
    10     8     9    1
    11     8    10   ar
    12    10    11   ar
    13    11    12   ar
    14    12    19    1
    15    19    20    1
    16    20    21    1
    17    21    22    1
    18    22    23    1
    19    23    27    1
    20    27    28   ar
    21    28    29   ar
    22    29    30   ar
    23    30    32    1
    24    32    33    1
    25    32    34    1
    26    32    35    1
    27    30    31   ar
    28    23    24    1
    29    24    25    1
    30    25    26    1
    31    12    13   ar
    32    13    14   ar
    33     6     1   ar
    34    14    10   ar
    35    14     5   ar
    36    25    20    1
    37    31    27   ar
    38     9    15    1
    39     9    16    1
@<TRIPOS>MOLECULE
*****
 35 39 0 0 0
SMALL
GASTEIGER

@<TRIPOS>ATOM
      1 C         142.3328  129.2246  155.2906 C.ar    1  UNL1        0.1564
      2 C         141.0363  129.0439  154.5581 C.ar    1  UNL1        0.0385
      3 C         140.1760  130.2338  154.2516 C.ar    1  UNL1        0.0033
      4 C         140.6121  131.6043  154.6775 C.ar    1  UNL1        0.0048
      5 C         141.9085  131.7850  155.4099 C.ar    1  UNL1        0.0567
      6 C         142.7689  130.5951  155.7164 C.ar    1  UNL1        0.1209
      7 N         144.0654  130.7759  156.4489 N.ar    1  UNL1       -0.2108
      8 C         144.5015  132.1464  156.8747 C.ar    1  UNL1        0.2163
      9 N         145.7981  132.3271  157.6072 N.pl3   1  UNL1       -0.3274
     10 N         143.6412  133.3363  156.5682 N.ar    1  UNL1       -0.1813
     11 N         143.8089  134.7980  156.8600 N.ar    1  UNL1       -0.1451
     12 C         142.6160  135.5207  156.3080 C.ar    1  UNL1        0.1769
     13 N         141.7111  134.5056  155.6749 N.ar    1  UNL1       -0.2086
     14 C         142.3447  133.1556  155.8358 C.ar    1  UNL1        0.1695
     15 H         146.3628  131.5462  157.8084 H       1  UNL1        0.1452
     16 H         146.0843  133.2266  157.8867 H       1  UNL1        0.1452
     17 C         142.8569  127.1449  156.7569 C.3     1  UNL1        0.2525
     18 O         143.1932  128.0347  155.5971 O.3     1  UNL1       -0.4699
     19 C         142.3711  136.9990  156.3769 C.3     1  UNL1        0.1408
     20 N         141.7301  137.5971  157.5940 N.3     1  UNL1       -0.2644
     21 C         142.5400  137.8146  158.8378 C.3     1  UNL1        0.0941
     22 C         141.8990  138.4127  160.0550 C.3     1  UNL1        0.1082
     23 N         140.4483  138.7933  160.0284 N.pl3   1  UNL1       -0.3023
     24 C         139.6386  138.5758  158.7846 C.3     1  UNL1        0.1068
     25 C         140.2795  137.9777  157.5675 C.3     1  UNL1        0.0777
     26 C         139.4698  137.7601  156.3237 C.3     1  UNL1        0.0192
     27 C         139.8074  139.3914  161.2456 C.ar    1  UNL1        0.0881
     28 C         139.2274  140.7708  161.3489 C.ar    1  UNL1        0.1361
     29 N         138.6955  140.9470  162.7403 N.ar    1  UNL1       -0.1664
     30 N         138.9468  139.6765  163.4970 N.ar    1  UNL1       -0.2518
     31 C         139.6340  138.7150  162.5732 C.ar    1  UNL1        0.1110
     32 C         138.5760  139.4135  164.9264 C.3     1  UNL1        0.0867
     33 C         138.3108  140.8763  165.1268 C.3     1  UNL1        0.0244
     34 C         138.8412  137.9508  164.7261 C.3     1  UNL1        0.0244
     35 C         138.2052  139.1505  166.3559 C.3     1  UNL1        0.0244
@<TRIPOS>BOND
     1    17    18    1
     2    18     1    1
     3     1     2   ar
     4     2     3   ar
     5     3     4   ar
     6     4     5   ar
     7     5     6   ar
     8     6     7   ar
     9     7     8   ar
    10     8     9    1
    11     8    10   ar
    12    10    11   ar
    13    11    12   ar
    14    12    19    1
    15    19    20    1
    16    20    21    1
    17    21    22    1
    18    22    23    1
    19    23    27    1
    20    27    28   ar
    21    28    29   ar
    22    29    30   ar
    23    30    32    1
    24    32    33    1
    25    32    34    1
    26    32    35    1
    27    30    31   ar
    28    23    24    1
    29    24    25    1
    30    25    26    1
    31    12    13   ar
    32    13    14   ar
    33     6     1   ar
    34    14    10   ar
    35    14     5   ar
    36    25    20    1
    37    31    27   ar
    38     9    15    1
    39     9    16    1
@<TRIPOS>MOLECULE
*****
 35 39 0 0 0
SMALL
GASTEIGER

@<TRIPOS>ATOM
      1 C         129.3193  140.3722  156.3747 C.ar    1  UNL1        0.1564
      2 C         128.7151  141.2218  155.2962 C.ar    1  UNL1        0.0385
      3 C         129.6017  141.9901  154.3616 C.ar    1  UNL1        0.0033
      4 C         131.0926  141.9089  154.5055 C.ar    1  UNL1        0.0048
      5 C         131.6968  141.0594  155.5839 C.ar    1  UNL1        0.0567
      6 C         130.8101  140.2910  156.5185 C.ar    1  UNL1        0.1209
      7 N         131.4144  139.4414  157.5971 N.ar    1  UNL1       -0.2108
      8 C         132.9052  139.3602  157.7409 C.ar    1  UNL1        0.2163
      9 N         133.5095  138.5106  158.8195 N.pl3   1  UNL1       -0.3274
     10 N         133.7919  140.1286  156.8063 N.ar    1  UNL1       -0.1813
     11 N         135.2841  140.2434  156.7054 N.ar    1  UNL1       -0.1451
     12 C         135.6021  141.1639  155.5646 C.ar    1  UNL1        0.1769
     13 N         134.3064  141.6180  154.9604 N.ar    1  UNL1       -0.2086
     14 C         133.1877  140.9781  155.7279 C.ar    1  UNL1        0.1695
     15 H         132.9276  138.0063  159.4329 H       1  UNL1        0.1452
     16 H         134.4880  138.4573  158.9139 H       1  UNL1        0.1452
     17 C         127.4903  140.3342  158.2194 C.3     1  UNL1        0.2525
     18 O         128.4326  139.6038  157.3092 O.3     1  UNL1       -0.4699
     19 C         136.9748  141.5606  155.1081 C.3     1  UNL1        0.1408
     20 N         138.0125  141.9630  156.1137 N.3     1  UNL1       -0.2644
     21 C         138.6620  140.9233  156.9781 C.3     1  UNL1        0.0941
     22 C         139.6997  141.3257  157.9838 C.3     1  UNL1        0.1082
     23 N         140.0879  142.7678  158.1249 N.pl3   1  UNL1       -0.3023
     24 C         139.4383  143.8074  157.2605 C.3     1  UNL1        0.1068
     25 C         138.4006  143.4050  156.2549 C.3     1  UNL1        0.0777
     26 C         137.7510  144.4446  155.3905 C.3     1  UNL1        0.0192
     27 C         141.1256  143.1702  159.1305 C.ar    1  UNL1        0.0881
     28 C         142.6101  143.0252  158.9719 C.ar    1  UNL1        0.1361
     29 N         143.2630  143.5536  160.2146 N.ar    1  UNL1       -0.1664
     30 N         142.1819  144.0252  161.1414 N.ar    1  UNL1       -0.2518
     31 C         140.8609  143.7883  160.4715 C.ar    1  UNL1        0.1110
     32 C         142.3860  144.6280  162.4998 C.3     1  UNL1        0.0867
     33 C         143.7733  144.0589  162.5439 C.3     1  UNL1        0.0244
     34 C         140.9989  145.1970  162.4556 C.3     1  UNL1        0.0244
     35 C         142.5901  145.2307  163.8581 C.3     1  UNL1        0.0244
@<TRIPOS>BOND
     1    17    18    1
     2    18     1    1
     3     1     2   ar
     4     2     3   ar
     5     3     4   ar
     6     4     5   ar
     7     5     6   ar
     8     6     7   ar
     9     7     8   ar
    10     8     9    1
    11     8    10   ar
    12    10    11   ar
    13    11    12   ar
    14    12    19    1
    15    19    20    1
    16    20    21    1
    17    21    22    1
    18    22    23    1
    19    23    27    1
    20    27    28   ar
    21    28    29   ar
    22    29    30   ar
    23    30    32    1
    24    32    33    1
    25    32    34    1
    26    32    35    1
    27    30    31   ar
    28    23    24    1
    29    24    25    1
    30    25    26    1
    31    12    13   ar
    32    13    14   ar
    33     6     1   ar
    34    14    10   ar
    35    14     5   ar
    36    25    20    1
    37    31    27   ar
    38     9    15    1
    39     9    16    1
@<TRIPOS>MOLECULE
*****
 35 39 0 0 0
SMALL
GASTEIGER

@<TRIPOS>ATOM
      1 C         140.4273  146.5334  155.1063 C.ar    1  UNL1        0.1564
      2 C         141.1643  146.2637  153.8280 C.ar    1  UNL1        0.0385
      3 C         142.3441  145.3375  153.8235 C.ar    1  UNL1        0.0033
      4 C         142.7870  144.6809  155.0974 C.ar    1  UNL1        0.0048
      5 C         142.0501  144.9507  156.3757 C.ar    1  UNL1        0.0567
      6 C         140.8703  145.8769  156.3801 C.ar    1  UNL1        0.1209
      7 N         140.1333  146.1466  157.6585 N.ar    1  UNL1       -0.2108
      8 C         140.5762  145.4901  158.9324 C.ar    1  UNL1        0.2163
      9 N         139.8393  145.7598  160.2108 N.pl3   1  UNL1       -0.3274
     10 N         141.7561  144.5638  158.9279 N.ar    1  UNL1       -0.1813
     11 N         142.4194  143.7781  160.0200 N.ar    1  UNL1       -0.1451
     12 C         143.5662  143.0228  159.4166 C.ar    1  UNL1        0.1769
     13 N         143.6118  143.3417  157.9516 N.ar    1  UNL1       -0.2086
     14 C         142.4930  144.2941  157.6496 C.ar    1  UNL1        0.1695
     15 H         139.0649  146.3677  160.2137 H       1  UNL1        0.1452
     16 H         140.1300  145.3289  161.0469 H       1  UNL1        0.1452
     17 C         139.4149  148.8896  154.6896 C.3     1  UNL1        0.2525
     18 O         139.2475  147.4597  155.1107 O.3     1  UNL1       -0.4699
     19 C         144.5032  142.1089  160.1495 C.3     1  UNL1        0.1408
     20 N         144.1974  141.6941  161.5582 N.3     1  UNL1       -0.2644
     21 C         144.1495  142.7224  162.6493 C.3     1  UNL1        0.0941
     22 C         143.8437  142.3075  164.0579 C.3     1  UNL1        0.1082
     23 N         143.5857  140.8644  164.3755 N.pl3   1  UNL1       -0.3023
     24 C         143.6335  139.8361  163.2845 C.3     1  UNL1        0.1068
     25 C         143.9394  140.2510  161.8758 C.3     1  UNL1        0.0777
     26 C         143.9872  139.2228  160.7848 C.3     1  UNL1        0.0192
     27 C         143.2799  140.4495  165.7842 C.ar    1  UNL1        0.0881
     28 C         143.2750  139.0440  166.3081 C.ar    1  UNL1        0.1361
     29 N         142.9174  139.0932  167.7640 N.ar    1  UNL1       -0.1664
     30 N         142.7012  140.5291  168.1400 N.ar    1  UNL1       -0.2518
     31 C         142.9252  141.3675  166.9164 C.ar    1  UNL1        0.1110
     32 C         142.3267  141.0376  169.5006 C.3     1  UNL1        0.0867
     33 C         141.3339  139.9222  169.6442 C.3     1  UNL1        0.0244
     34 C         143.3193  142.1529  169.3570 C.3     1  UNL1        0.0244
     35 C         141.9522  141.5460  170.8611 C.3     1  UNL1        0.0244
@<TRIPOS>BOND
     1    17    18    1
     2    18     1    1
     3     1     2   ar
     4     2     3   ar
     5     3     4   ar
     6     4     5   ar
     7     5     6   ar
     8     6     7   ar
     9     7     8   ar
    10     8     9    1
    11     8    10   ar
    12    10    11   ar
    13    11    12   ar
    14    12    19    1
    15    19    20    1
    16    20    21    1
    17    21    22    1
    18    22    23    1
    19    23    27    1
    20    27    28   ar
    21    28    29   ar
    22    29    30   ar
    23    30    32    1
    24    32    33    1
    25    32    34    1
    26    32    35    1
    27    30    31   ar
    28    23    24    1
    29    24    25    1
    30    25    26    1
    31    12    13   ar
    32    13    14   ar
    33     6     1   ar
    34    14    10   ar
    35    14     5   ar
    36    25    20    1
    37    31    27   ar
    38     9    15    1
    39     9    16    1
@<TRIPOS>MOLECULE
*****
 35 39 0 0 0
SMALL
GASTEIGER

@<TRIPOS>ATOM
      1 C         141.1148  141.4149  168.8976 C.ar    1  UNL1        0.1564
      2 C         142.3643  142.1749  168.5645 C.ar    1  UNL1        0.0385
      3 C         142.9528  142.0842  167.1877 C.ar    1  UNL1        0.0033
      4 C         142.2917  141.2336  166.1440 C.ar    1  UNL1        0.0048
      5 C         141.0421  140.4737  166.4771 C.ar    1  UNL1        0.0567
      6 C         140.4537  140.5643  167.8539 C.ar    1  UNL1        0.1209
      7 N         139.2040  139.8043  168.1869 N.ar    1  UNL1       -0.2108
      8 C         138.5429  138.9537  167.1432 C.ar    1  UNL1        0.2163
      9 N         137.2933  138.1936  167.4763 N.pl3   1  UNL1       -0.3274
     10 N         139.1314  138.8630  165.7665 N.ar    1  UNL1       -0.1813
     11 N         138.7054  138.1113  164.5403 N.ar    1  UNL1       -0.1451
     12 C         139.6916  138.4067  163.4495 C.ar    1  UNL1        0.1769
     13 N         140.7272  139.3410  164.0014 N.ar    1  UNL1       -0.2086
     14 C         140.3810  139.6230  165.4334 C.ar    1  UNL1        0.1695
     15 H         136.9070  138.2531  168.3799 H       1  UNL1        0.1452
     16 H         136.8594  137.6353  166.7912 H       1  UNL1        0.1452
     17 C         139.8239  142.7577  170.7088 C.3     1  UNL1        0.2525
     18 O         140.5263  141.5056  170.2743 O.3     1  UNL1       -0.4699
     19 C         139.6497  137.8632  162.0520 C.3     1  UNL1        0.1408
     20 N         139.4273  138.7897  160.8934 N.3     1  UNL1       -0.2644
     21 C         138.0728  139.3919  160.6639 C.3     1  UNL1        0.0941
     22 C         137.8504  140.3183  159.5054 C.3     1  UNL1        0.1082
     23 N         138.9825  140.6425  158.5762 N.pl3   1  UNL1       -0.3023
     24 C         140.3370  140.0402  158.8057 C.3     1  UNL1        0.1068
     25 C         140.5594  139.1138  159.9642 C.3     1  UNL1        0.0777
     26 C         141.9138  138.5115  160.1937 C.3     1  UNL1        0.0192
     27 C         138.7602  141.5689  157.4176 C.ar    1  UNL1        0.0881
     28 C         138.3813  141.1629  156.0242 C.ar    1  UNL1        0.1361
     29 N         138.2646  142.4070  155.1944 N.ar    1  UNL1       -0.1664
     30 N         138.5713  143.5819  156.0750 N.ar    1  UNL1       -0.2518
     31 C         138.8776  143.0640  157.4491 C.ar    1  UNL1        0.1110
     32 C         138.5716  145.0220  155.6553 C.3     1  UNL1        0.0867
     33 C         139.7484  145.2821  156.5485 C.3     1  UNL1        0.0244
     34 C         137.3949  144.7620  154.7622 C.3     1  UNL1        0.0244
     35 C         138.5720  146.4621  155.2357 C.3     1  UNL1        0.0244
@<TRIPOS>BOND
     1    17    18    1
     2    18     1    1
     3     1     2   ar
     4     2     3   ar
     5     3     4   ar
     6     4     5   ar
     7     5     6   ar
     8     6     7   ar
     9     7     8   ar
    10     8     9    1
    11     8    10   ar
    12    10    11   ar
    13    11    12   ar
    14    12    19    1
    15    19    20    1
    16    20    21    1
    17    21    22    1
    18    22    23    1
    19    23    27    1
    20    27    28   ar
    21    28    29   ar
    22    29    30   ar
    23    30    32    1
    24    32    33    1
    25    32    34    1
    26    32    35    1
    27    30    31   ar
    28    23    24    1
    29    24    25    1
    30    25    26    1
    31    12    13   ar
    32    13    14   ar
    33     6     1   ar
    34    14    10   ar
    35    14     5   ar
    36    25    20    1
    37    31    27   ar
    38     9    15    1
    39     9    16    1
