@<TRIPOS>MOLECULE
*****
 22 23 0 0 0
SMALL
GASTEIGER

@<TRIPOS>ATOM
      1 C         141.3075  139.8524  169.5421 C.ar    1  UNL1        0.1295
      2 N         141.2724  139.8101  168.0432 N.ar    1  UNL1       -0.2298
      3 C         139.8370  139.8672  167.6113 C.ar    1  UNL1        0.0996
      4 C         138.9850  139.9448  168.8434 C.ar    1  UNL1        0.0927
      5 N         139.8938  139.9357  170.0367 N.ar    1  UNL1       -0.3386
      6 H         139.6119  139.9770  170.9791 H       1  UNL1        0.1672
      7 C         142.3139  141.2498  170.7808 C.3     1  UNL1        0.0232
      8 C         142.5399  139.8176  170.3965 C.3     1  UNL1        0.0901
      9 C         142.7659  138.3854  170.0123 C.3     1  UNL1        0.0232
     10 N         143.7723  139.7828  171.2509 N.3     1  UNL1       -0.3177
     11 H         143.9068  140.6931  171.6910 H       1  UNL1        0.1191
     12 H         144.5819  139.5625  170.6710 H       1  UNL1        0.1191
     13 C         139.3408  139.8498  166.1958 C.ar    1  UNL1        0.0192
     14 C         139.2792  138.5564  165.4386 C.ar    1  UNL1        0.0029
     15 C         138.7830  138.5390  164.0232 C.ar    1  UNL1        0.0184
     16 C         138.3484  139.8150  163.3650 C.ar    1  UNL1        0.1057
     17 C         138.4100  141.1083  164.1223 C.ar    1  UNL1        0.0184
     18 C         138.9062  141.1257  165.5377 C.ar    1  UNL1        0.0029
     19 S         137.8522  139.7975  161.9495 S.O2    1  UNL1        0.0104
     20 C         137.3560  139.7800  160.5341 C.3     1  UNL1        0.1816
     21 O         138.3500  138.3913  161.7924 O.2     1  UNL1       -0.1686
     22 O         137.3543  141.2037  162.1067 O.2     1  UNL1       -0.1686
@<TRIPOS>BOND
     1     7     8    1
     2     8     9    1
     3     8    10    1
     4     8     1    1
     5     1     2   ar
     6     2     3   ar
     7     3    13    1
     8    13    14   ar
     9    14    15   ar
    10    15    16   ar
    11    16    19    1
    12    19    20    1
    13    19    21    2
    14    19    22    2
    15    16    17   ar
    16    17    18   ar
    17     3     4   ar
    18     4     5   ar
    19     5     1   ar
    20    18    13   ar
    21    10    11    1
    22    10    12    1
    23     5     6    1
@<TRIPOS>MOLECULE
*****
 22 23 0 0 0
SMALL
GASTEIGER

@<TRIPOS>ATOM
      1 C         140.9536  140.8427  169.2650 C.ar    1  UNL1        0.1295
      2 N         141.1889  141.9423  168.2722 N.ar    1  UNL1       -0.2298
      3 C         140.3383  141.6689  167.0673 C.ar    1  UNL1        0.0996
      4 C         139.5774  140.4003  167.3153 C.ar    1  UNL1        0.0927
      5 N         139.9576  139.8897  168.6735 N.ar    1  UNL1       -0.3386
      6 H         139.6138  139.0725  169.1016 H       1  UNL1        0.1672
      7 C         142.3785  139.5301  170.1290 C.3     1  UNL1        0.0232
      8 C         141.6006  140.7181  170.6125 C.3     1  UNL1        0.0901
      9 C         140.8228  141.9060  171.0959 C.3     1  UNL1        0.0232
     10 N         142.2477  140.5934  171.9600 N.3     1  UNL1       -0.3177
     11 H         142.8930  139.8035  171.9555 H       1  UNL1        0.1191
     12 H         141.5302  140.4422  172.6690 H       1  UNL1        0.1191
     13 C         140.2622  142.5155  165.8313 C.ar    1  UNL1        0.0192
     14 C         139.5186  143.8178  165.8590 C.ar    1  UNL1        0.0029
     15 C         139.4424  144.6644  164.6231 C.ar    1  UNL1        0.0184
     16 C         140.1099  144.2085  163.3595 C.ar    1  UNL1        0.1057
     17 C         140.8535  142.9061  163.3318 C.ar    1  UNL1        0.0184
     18 C         140.9297  142.0596  164.5678 C.ar    1  UNL1        0.0029
     19 S         140.0338  145.0551  162.1235 S.O2    1  UNL1        0.0104
     20 C         139.9577  145.9016  160.8876 C.3     1  UNL1        0.1816
     21 O         141.5188  144.9351  161.9499 O.2     1  UNL1       -0.1686
     22 O         138.5487  145.1751  162.2971 O.2     1  UNL1       -0.1686
@<TRIPOS>BOND
     1     7     8    1
     2     8     9    1
     3     8    10    1
     4     8     1    1
     5     1     2   ar
     6     2     3   ar
     7     3    13    1
     8    13    14   ar
     9    14    15   ar
    10    15    16   ar
    11    16    19    1
    12    19    20    1
    13    19    21    2
    14    19    22    2
    15    16    17   ar
    16    17    18   ar
    17     3     4   ar
    18     4     5   ar
    19     5     1   ar
    20    18    13   ar
    21    10    11    1
    22    10    12    1
    23     5     6    1
@<TRIPOS>MOLECULE
*****
 22 23 0 0 0
SMALL
GASTEIGER

@<TRIPOS>ATOM
      1 C         142.5931  141.7135  169.3621 C.ar    1  UNL1        0.1295
      2 N         141.6816  141.7796  168.1727 N.ar    1  UNL1       -0.2298
      3 C         141.5957  140.4054  167.5775 C.ar    1  UNL1        0.0996
      4 C         142.4543  139.4900  168.3990 C.ar    1  UNL1        0.0927
      5 N         143.0707  140.2984  169.5019 N.ar    1  UNL1       -0.3386
      6 H         143.6814  139.9596  170.1958 H       1  UNL1        0.1672
      7 C         141.5128  143.2228  170.3891 C.3     1  UNL1        0.0232
      8 C         142.9623  142.8609  170.2549 C.3     1  UNL1        0.0901
      9 C         144.4117  142.4989  170.1208 C.3     1  UNL1        0.0232
     10 N         143.3314  144.0083  171.1477 N.3     1  UNL1       -0.3177
     11 H         142.4858  144.5004  171.4361 H       1  UNL1        0.1191
     12 H         143.9424  144.6497  170.6420 H       1  UNL1        0.1191
     13 C         140.7924  140.0152  166.3722 C.ar    1  UNL1        0.0192
     14 C         141.4474  139.9460  165.0246 C.ar    1  UNL1        0.0029
     15 C         140.6441  139.5558  163.8195 C.ar    1  UNL1        0.0184
     16 C         139.1858  139.2349  163.9620 C.ar    1  UNL1        0.1057
     17 C         138.5308  139.3041  165.3096 C.ar    1  UNL1        0.0184
     18 C         139.3341  139.6943  166.5147 C.ar    1  UNL1        0.0029
     19 S         138.3824  138.8447  162.7567 S.O2    1  UNL1        0.0104
     20 C         137.5792  138.4545  161.5516 C.3     1  UNL1        0.1816
     21 O         139.0612  137.5073  162.7374 O.2     1  UNL1       -0.1686
     22 O         137.7036  140.1821  162.7761 O.2     1  UNL1       -0.1686
@<TRIPOS>BOND
     1     7     8    1
     2     8     9    1
     3     8    10    1
     4     8     1    1
     5     1     2   ar
     6     2     3   ar
     7     3    13    1
     8    13    14   ar
     9    14    15   ar
    10    15    16   ar
    11    16    19    1
    12    19    20    1
    13    19    21    2
    14    19    22    2
    15    16    17   ar
    16    17    18   ar
    17     3     4   ar
    18     4     5   ar
    19     5     1   ar
    20    18    13   ar
    21    10    11    1
    22    10    12    1
    23     5     6    1
@<TRIPOS>MOLECULE
*****
 22 23 0 0 0
SMALL
GASTEIGER

@<TRIPOS>ATOM
      1 C         140.2236  141.8032  168.8831 C.ar    1  UNL1        0.1295
      2 N         140.4904  142.8214  167.8144 N.ar    1  UNL1       -0.2298
      3 C         140.2391  142.1744  166.4846 C.ar    1  UNL1        0.0996
      4 C         139.8169  140.7564  166.7315 C.ar    1  UNL1        0.0927
      5 N         139.8073  140.5269  168.2138 N.ar    1  UNL1       -0.3386
      6 H         139.5696  139.6863  168.6677 H       1  UNL1        0.1672
      7 C         140.3523  143.5065  170.1410 C.3     1  UNL1        0.0232
      8 C         140.3506  142.0228  170.3615 C.3     1  UNL1        0.0901
      9 C         140.3489  140.5391  170.5819 C.3     1  UNL1        0.0232
     10 N         140.4777  142.2423  171.8398 N.3     1  UNL1       -0.3177
     11 H         140.5076  143.2433  172.0336 H       1  UNL1        0.1191
     12 H         141.3358  141.8052  172.1760 H       1  UNL1        0.1191
     13 C         140.3844  142.8303  165.1434 C.ar    1  UNL1        0.0192
     14 C         139.6688  144.1169  164.8563 C.ar    1  UNL1        0.0029
     15 C         139.8141  144.7728  163.5152 C.ar    1  UNL1        0.0184
     16 C         140.6751  144.1421  162.4612 C.ar    1  UNL1        0.1057
     17 C         141.3907  142.8555  162.7483 C.ar    1  UNL1        0.0184
     18 C         141.2454  142.1996  164.0894 C.ar    1  UNL1        0.0029
     19 S         140.8204  144.7980  161.1200 S.O2    1  UNL1        0.0104
     20 C         140.9657  145.4539  159.7789 C.3     1  UNL1        0.1816
     21 O         139.3413  145.0436  161.0799 O.2     1  UNL1       -0.1686
     22 O         142.2996  144.5524  161.1601 O.2     1  UNL1       -0.1686
@<TRIPOS>BOND
     1     7     8    1
     2     8     9    1
     3     8    10    1
     4     8     1    1
     5     1     2   ar
     6     2     3   ar
     7     3    13    1
     8    13    14   ar
     9    14    15   ar
    10    15    16   ar
    11    16    19    1
    12    19    20    1
    13    19    21    2
    14    19    22    2
    15    16    17   ar
    16    17    18   ar
    17     3     4   ar
    18     4     5   ar
    19     5     1   ar
    20    18    13   ar
    21    10    11    1
    22    10    12    1
    23     5     6    1
@<TRIPOS>MOLECULE
*****
 22 23 0 0 0
SMALL
GASTEIGER

@<TRIPOS>ATOM
      1 C         140.9533  140.8587  169.2333 C.ar    1  UNL1        0.1295
      2 N         141.1848  141.9582  168.2396 N.ar    1  UNL1       -0.2298
      3 C         140.3488  141.6713  167.0276 C.ar    1  UNL1        0.0996
      4 C         139.6008  140.3943  167.2722 C.ar    1  UNL1        0.0927
      5 N         139.9744  139.8921  168.6353 N.ar    1  UNL1       -0.3386
      6 H         139.6364  139.0721  169.0626 H       1  UNL1        0.1672
      7 C         140.7266  141.8666  171.0860 C.3     1  UNL1        0.0232
      8 C         141.5892  140.7455  170.5871 C.3     1  UNL1        0.0901
      9 C         142.4518  139.6243  170.0882 C.3     1  UNL1        0.0232
     10 N         142.2251  140.6323  171.9409 N.3     1  UNL1       -0.3177
     11 H         141.8162  141.3254  172.5676 H       1  UNL1        0.1191
     12 H         143.2284  140.7969  171.8601 H       1  UNL1        0.1191
     13 C         140.2741  142.5135  165.7885 C.ar    1  UNL1        0.0192
     14 C         140.9019  142.0308  164.5146 C.ar    1  UNL1        0.0029
     15 C         140.8271  142.8729  163.2756 C.ar    1  UNL1        0.0184
     16 C         140.1247  144.1978  163.3106 C.ar    1  UNL1        0.1057
     17 C         139.4969  144.6805  164.5845 C.ar    1  UNL1        0.0184
     18 C         139.5717  143.8384  165.8235 C.ar    1  UNL1        0.0029
     19 S         140.0499  145.0400  162.0715 S.O2    1  UNL1        0.0104
     20 C         139.9752  145.8821  160.8325 C.3     1  UNL1        0.1816
     21 O         138.5589  145.1188  162.2150 O.2     1  UNL1       -0.1686
     22 O         141.5409  144.9612  161.9280 O.2     1  UNL1       -0.1686
@<TRIPOS>BOND
     1     7     8    1
     2     8     9    1
     3     8    10    1
     4     8     1    1
     5     1     2   ar
     6     2     3   ar
     7     3    13    1
     8    13    14   ar
     9    14    15   ar
    10    15    16   ar
    11    16    19    1
    12    19    20    1
    13    19    21    2
    14    19    22    2
    15    16    17   ar
    16    17    18   ar
    17     3     4   ar
    18     4     5   ar
    19     5     1   ar
    20    18    13   ar
    21    10    11    1
    22    10    12    1
    23     5     6    1
@<TRIPOS>MOLECULE
*****
 22 23 0 0 0
SMALL
GASTEIGER

@<TRIPOS>ATOM
      1 C         140.9496  140.0455  169.0594 C.ar    1  UNL1        0.1295
      2 N         141.7760  139.7327  167.8473 N.ar    1  UNL1       -0.2298
      3 C         140.8409  139.4523  166.7084 C.ar    1  UNL1        0.0996
      4 C         139.4366  139.5919  167.2166 C.ar    1  UNL1        0.0927
      5 N         139.5037  139.9585  168.6696 N.ar    1  UNL1       -0.3386
      6 H         138.7339  140.1146  169.2631 H       1  UNL1        0.1672
      7 C         142.5785  139.3835  170.2460 C.3     1  UNL1        0.0232
      8 C         141.4764  140.3857  170.4220 C.3     1  UNL1        0.0901
      9 C         140.3744  141.3879  170.5979 C.3     1  UNL1        0.0232
     10 N         142.0033  140.7259  171.7846 N.3     1  UNL1       -0.3177
     11 H         142.8293  140.1604  171.9806 H       1  UNL1        0.1191
     12 H         141.2861  140.5341  172.4840 H       1  UNL1        0.1191
     13 C         141.2402  139.0950  165.3073 C.ar    1  UNL1        0.0192
     14 C         141.9367  140.1057  164.4452 C.ar    1  UNL1        0.0029
     15 C         142.3359  139.7484  163.0441 C.ar    1  UNL1        0.0184
     16 C         142.0386  138.3805  162.5053 C.ar    1  UNL1        0.1057
     17 C         141.3421  137.3698  163.3674 C.ar    1  UNL1        0.0184
     18 C         140.9429  137.7271  164.7685 C.ar    1  UNL1        0.0029
     19 S         142.4379  138.0232  161.1042 S.O2    1  UNL1        0.0104
     20 C         142.8370  137.6660  159.7031 C.3     1  UNL1        0.1816
     21 O         141.0376  138.2898  160.6372 O.2     1  UNL1       -0.1686
     22 O         143.8381  137.7567  161.5711 O.2     1  UNL1       -0.1686
@<TRIPOS>BOND
     1     7     8    1
     2     8     9    1
     3     8    10    1
     4     8     1    1
     5     1     2   ar
     6     2     3   ar
     7     3    13    1
     8    13    14   ar
     9    14    15   ar
    10    15    16   ar
    11    16    19    1
    12    19    20    1
    13    19    21    2
    14    19    22    2
    15    16    17   ar
    16    17    18   ar
    17     3     4   ar
    18     4     5   ar
    19     5     1   ar
    20    18    13   ar
    21    10    11    1
    22    10    12    1
    23     5     6    1
@<TRIPOS>MOLECULE
*****
 22 23 0 0 0
SMALL
GASTEIGER

@<TRIPOS>ATOM
      1 C         141.1874  142.5881  169.4121 C.ar    1  UNL1        0.1295
      2 N         141.0338  141.8435  168.1190 N.ar    1  UNL1       -0.2298
      3 C         142.3941  141.6969  167.5041 C.ar    1  UNL1        0.0996
      4 C         143.3885  142.3508  168.4171 C.ar    1  UNL1        0.0927
      5 N         142.6428  142.9017  169.5963 N.ar    1  UNL1       -0.3386
      6 H         143.0389  143.3843  170.3574 H       1  UNL1        0.1672
      7 C         139.7735  141.5010  170.5604 C.3     1  UNL1        0.0232
      8 C         140.0803  142.9549  170.3553 C.3     1  UNL1        0.0901
      9 C         140.3870  144.4087  170.1501 C.3     1  UNL1        0.0232
     10 N         138.9731  143.3216  171.2985 N.3     1  UNL1       -0.3177
     11 H         138.5255  142.4726  171.6438 H       1  UNL1        0.1191
     12 H         138.2850  143.8938  170.8090 H       1  UNL1        0.1191
     13 C         142.7053  141.0158  166.2043 C.ar    1  UNL1        0.0192
     14 C         142.7174  141.8043  164.9284 C.ar    1  UNL1        0.0029
     15 C         143.0286  141.1232  163.6288 C.ar    1  UNL1        0.0184
     16 C         143.3278  139.6536  163.6050 C.ar    1  UNL1        0.1057
     17 C         143.3158  138.8650  164.8809 C.ar    1  UNL1        0.0184
     18 C         143.0045  139.5461  166.1806 C.ar    1  UNL1        0.0029
     19 S         143.6390  138.9725  162.3052 S.O2    1  UNL1        0.0104
     20 C         143.9502  138.2914  161.0055 C.3     1  UNL1        0.1816
     21 O         142.6828  137.8706  162.6537 O.2     1  UNL1       -0.1686
     22 O         144.5952  140.0744  161.9567 O.2     1  UNL1       -0.1686
@<TRIPOS>BOND
     1     7     8    1
     2     8     9    1
     3     8    10    1
     4     8     1    1
     5     1     2   ar
     6     2     3   ar
     7     3    13    1
     8    13    14   ar
     9    14    15   ar
    10    15    16   ar
    11    16    19    1
    12    19    20    1
    13    19    21    2
    14    19    22    2
    15    16    17   ar
    16    17    18   ar
    17     3     4   ar
    18     4     5   ar
    19     5     1   ar
    20    18    13   ar
    21    10    11    1
    22    10    12    1
    23     5     6    1
@<TRIPOS>MOLECULE
*****
 22 23 0 0 0
SMALL
GASTEIGER

@<TRIPOS>ATOM
      1 C         140.0185  141.1395  169.0416 C.ar    1  UNL1        0.1295
      2 N         140.0739  141.9195  167.7616 N.ar    1  UNL1       -0.2298
      3 C         139.5881  141.0302  166.6555 C.ar    1  UNL1        0.0996
      4 C         139.2325  139.7007  167.2520 C.ar    1  UNL1        0.0927
      5 N         139.4984  139.7682  168.7266 N.ar    1  UNL1       -0.3386
      6 H         139.3565  139.0403  169.3741 H       1  UNL1        0.1672
      7 C         140.3242  143.0547  169.9009 C.3     1  UNL1        0.0232
      8 C         140.4136  141.6425  170.3984 C.3     1  UNL1        0.0901
      9 C         140.5031  140.2302  170.8959 C.3     1  UNL1        0.0232
     10 N         140.8088  142.1455  171.7551 N.3     1  UNL1       -0.3177
     11 H         140.8410  143.1649  171.7437 H       1  UNL1        0.1191
     12 H         141.7289  141.7789  171.9989 H       1  UNL1        0.1191
     13 C         139.4775  141.4049  165.2072 C.ar    1  UNL1        0.0192
     14 C         140.6929  141.3709  164.3288 C.ar    1  UNL1        0.0029
     15 C         140.5822  141.7455  162.8805 C.ar    1  UNL1        0.0184
     16 C         139.2561  142.1541  162.3108 C.ar    1  UNL1        0.1057
     17 C         138.0408  142.1880  163.1892 C.ar    1  UNL1        0.0184
     18 C         138.1514  141.8134  164.6374 C.ar    1  UNL1        0.0029
     19 S         139.1455  142.5287  160.8625 S.O2    1  UNL1        0.0104
     20 C         139.0348  142.9033  159.4142 C.3     1  UNL1        0.1816
     21 O         137.7351  142.9864  161.0886 O.2     1  UNL1       -0.1686
     22 O         140.5559  142.0710  160.6363 O.2     1  UNL1       -0.1686
@<TRIPOS>BOND
     1     7     8    1
     2     8     9    1
     3     8    10    1
     4     8     1    1
     5     1     2   ar
     6     2     3   ar
     7     3    13    1
     8    13    14   ar
     9    14    15   ar
    10    15    16   ar
    11    16    19    1
    12    19    20    1
    13    19    21    2
    14    19    22    2
    15    16    17   ar
    16    17    18   ar
    17     3     4   ar
    18     4     5   ar
    19     5     1   ar
    20    18    13   ar
    21    10    11    1
    22    10    12    1
    23     5     6    1
@<TRIPOS>MOLECULE
*****
 22 23 0 0 0
SMALL
GASTEIGER

@<TRIPOS>ATOM
      1 C         139.2759  143.9921  161.8257 C.ar    1  UNL1        0.1295
      2 N         140.0367  143.5416  163.0374 N.ar    1  UNL1       -0.2298
      3 C         139.0831  142.8170  163.9406 C.ar    1  UNL1        0.0996
      4 C         137.7329  142.8197  163.2870 C.ar    1  UNL1        0.0927
      5 N         137.8521  143.5460  161.9800 N.ar    1  UNL1       -0.3386
      6 H         137.1237  143.7024  161.3364 H       1  UNL1        0.1672
      7 C         139.9283  145.9866  161.5152 C.3     1  UNL1        0.0232
      8 C         139.8399  144.7549  160.6637 C.3     1  UNL1        0.0901
      9 C         139.7515  143.5231  159.8123 C.3     1  UNL1        0.0232
     10 N         140.4039  145.5176  159.5018 N.3     1  UNL1       -0.3177
     11 H         140.5883  146.4802  159.7843 H       1  UNL1        0.1191
     12 H         139.7332  145.5114  158.7333 H       1  UNL1        0.1191
     13 C         139.4204  142.1984  165.2648 C.ar    1  UNL1        0.0192
     14 C         140.1546  142.9972  166.3005 C.ar    1  UNL1        0.0029
     15 C         140.4919  142.3785  167.6247 C.ar    1  UNL1        0.0184
     16 C         140.0951  140.9610  167.9131 C.ar    1  UNL1        0.1057
     17 C         139.3609  140.1622  166.8773 C.ar    1  UNL1        0.0184
     18 C         139.0236  140.7809  165.5532 C.ar    1  UNL1        0.0029
     19 S         140.4325  140.3423  169.2373 S.O2    1  UNL1        0.0104
     20 C         140.7699  139.7237  170.5615 C.3     1  UNL1        0.1816
     21 O         141.8521  140.8041  169.0913 O.2     1  UNL1       -0.1686
     22 O         139.0128  139.8806  169.3833 O.2     1  UNL1       -0.1686
@<TRIPOS>BOND
     1     7     8    1
     2     8     9    1
     3     8    10    1
     4     8     1    1
     5     1     2   ar
     6     2     3   ar
     7     3    13    1
     8    13    14   ar
     9    14    15   ar
    10    15    16   ar
    11    16    19    1
    12    19    20    1
    13    19    21    2
    14    19    22    2
    15    16    17   ar
    16    17    18   ar
    17     3     4   ar
    18     4     5   ar
    19     5     1   ar
    20    18    13   ar
    21    10    11    1
    22    10    12    1
    23     5     6    1
