@<TRIPOS>MOLECULE
*****
 32 35 0 0 0
SMALL
GASTEIGER

@<TRIPOS>ATOM
      1 N         141.5619  139.4588  162.7301 N.am    1  UNL1       -0.2638
      2 C         141.9498  138.5853  163.8860 C.3     1  UNL1        0.1164
      3 C         141.1231  140.8727  162.9725 C.2     1  UNL1        0.3078
      4 O         140.7352  141.7463  161.8166 O.2     1  UNL1       -0.2523
      5 N         141.0723  141.4128  164.3710 N.am    1  UNL1       -0.2540
      6 C         141.4286  140.6618  165.6197 C.3     1  UNL1        0.1221
      7 C         141.2328  141.5837  166.7867 C.2     1  UNL1       -0.0024
      8 C         140.7555  142.9043  166.2593 C.2     1  UNL1       -0.0047
      9 C         140.6564  142.7987  164.7663 C.3     1  UNL1        0.1217
     10 C         140.5125  137.2265  156.3140 C.3     1  UNL1        0.0948
     11 C         141.7651  137.2983  157.1363 C.2     1  UNL1        0.2261
     12 O         143.0683  136.8300  156.5600 O.2     1  UNL1       -0.2749
     13 N         141.7143  137.8384  158.5347 N.am    1  UNL1       -0.2794
     14 C         140.4109  138.3068  159.1109 C.3     1  UNL1        0.0951
     15 C         140.3601  138.8469  160.5094 C.3     1  UNL1        0.0414
     16 C         141.6127  138.9187  161.3316 C.3     1  UNL1        0.0803
     17 C         142.9159  138.4504  160.7554 C.3     1  UNL1        0.0414
     18 C         142.9667  137.9102  159.3569 C.3     1  UNL1        0.0951
     19 C         141.4722  141.2444  168.2281 C.ar    1  UNL1        0.0271
     20 C         140.4445  140.4677  168.9965 C.ar    1  UNL1        0.0316
     21 C         140.6839  140.1284  170.4378 C.ar    1  UNL1        0.1403
     22 F         139.6561  139.3517  171.2063 F       1  UNL1       -0.2042
     23 C         141.9511  140.5658  171.1108 C.ar    1  UNL1        0.0319
     24 C         142.9789  141.3425  170.3424 C.ar    1  UNL1        0.0319
     25 C         142.7394  141.6818  168.9011 C.ar    1  UNL1        0.1400
     26 F         143.7672  142.4585  168.1327 F       1  UNL1       -0.2042
     27 C         140.2181  143.8878  163.8326 C.ar    1  UNL1       -0.0001
     28 C         141.2260  144.8490  163.2758 C.ar    1  UNL1       -0.0023
     29 C         140.7878  145.9381  162.3420 C.ar    1  UNL1       -0.0003
     30 C         139.3416  146.0659  161.9652 C.ar    1  UNL1       -0.0000
     31 C         138.3336  145.1047  162.5220 C.ar    1  UNL1       -0.0003
     32 C         138.7718  144.0156  163.4557 C.ar    1  UNL1       -0.0023
@<TRIPOS>BOND
     1    10    11    1
     2    11    12    2
     3    11    13   am
     4    13    14    1
     5    14    15    1
     6    15    16    1
     7    16     1    1
     8     1     2    1
     9     1     3   am
    10     3     4    2
    11     3     5   am
    12     5     6    1
    13     6     7    1
    14     7    19    1
    15    19    20   ar
    16    20    21   ar
    17    21    22    1
    18    21    23   ar
    19    23    24   ar
    20    24    25   ar
    21    25    26    1
    22     7     8    2
    23     8     9    1
    24     9    27    1
    25    27    28   ar
    26    28    29   ar
    27    29    30   ar
    28    30    31   ar
    29    31    32   ar
    30    16    17    1
    31    17    18    1
    32    18    13    1
    33     9     5    1
    34    32    27   ar
    35    25    19   ar
@<TRIPOS>MOLECULE
*****
 32 35 0 0 0
SMALL
GASTEIGER

@<TRIPOS>ATOM
      1 N         141.2180  139.0334  161.8817 N.am    1  UNL1       -0.2638
      2 C         141.5716  137.9879  162.8975 C.3     1  UNL1        0.1164
      3 C         140.9158  140.4351  162.3221 C.2     1  UNL1        0.3078
      4 O         140.5622  141.4806  161.3063 O.2     1  UNL1       -0.2523
      5 N         140.9671  140.7913  163.7783 N.am    1  UNL1       -0.2540
      6 C         141.3036  139.8575  164.9031 C.3     1  UNL1        0.1221
      7 C         141.2354  140.6329  166.1853 C.2     1  UNL1       -0.0024
      8 C         140.8568  142.0458  165.8531 C.2     1  UNL1       -0.0047
      9 C         140.6910  142.1437  164.3655 C.3     1  UNL1        0.1217
     10 C         139.6915  137.5237  155.3518 C.3     1  UNL1        0.0948
     11 C         141.0127  137.6088  156.0569 C.2     1  UNL1        0.2261
     12 O         142.2825  137.3377  155.3059 O.2     1  UNL1       -0.2749
     13 N         141.0640  137.9649  157.5131 N.am    1  UNL1       -0.2794
     14 C         139.7941  138.2360  158.2642 C.3     1  UNL1        0.0951
     15 C         139.8455  138.5922  159.7204 C.3     1  UNL1        0.0414
     16 C         141.1667  138.6772  160.4255 C.3     1  UNL1        0.0803
     17 C         142.4365  138.4062  159.6745 C.3     1  UNL1        0.0414
     18 C         142.3852  138.0500  158.2183 C.3     1  UNL1        0.0951
     19 C         141.4995  140.0905  167.5587 C.ar    1  UNL1        0.0271
     20 C         140.5413  140.3791  168.6760 C.ar    1  UNL1        0.0316
     21 C         140.8054  139.8368  170.0494 C.ar    1  UNL1        0.1403
     22 F         139.8472  140.1253  171.1668 F       1  UNL1       -0.2042
     23 C         142.0277  139.0058  170.3053 C.ar    1  UNL1        0.0319
     24 C         142.9859  138.7172  169.1880 C.ar    1  UNL1        0.0319
     25 C         142.7218  139.2596  167.8146 C.ar    1  UNL1        0.1400
     26 F         143.6800  138.9710  166.6973 F       1  UNL1       -0.2042
     27 C         140.3150  143.3774  163.5996 C.ar    1  UNL1       -0.0001
     28 C         141.3844  144.2782  163.0568 C.ar    1  UNL1       -0.0023
     29 C         141.0084  145.5119  162.2908 C.ar    1  UNL1       -0.0003
     30 C         139.5630  145.8447  162.0678 C.ar    1  UNL1       -0.0000
     31 C         138.4935  144.9439  162.6106 C.ar    1  UNL1       -0.0003
     32 C         138.8694  143.7102  163.3765 C.ar    1  UNL1       -0.0023
@<TRIPOS>BOND
     1    10    11    1
     2    11    12    2
     3    11    13   am
     4    13    14    1
     5    14    15    1
     6    15    16    1
     7    16     1    1
     8     1     2    1
     9     1     3   am
    10     3     4    2
    11     3     5   am
    12     5     6    1
    13     6     7    1
    14     7    19    1
    15    19    20   ar
    16    20    21   ar
    17    21    22    1
    18    21    23   ar
    19    23    24   ar
    20    24    25   ar
    21    25    26    1
    22     7     8    2
    23     8     9    1
    24     9    27    1
    25    27    28   ar
    26    28    29   ar
    27    29    30   ar
    28    30    31   ar
    29    31    32   ar
    30    16    17    1
    31    17    18    1
    32    18    13    1
    33     9     5    1
    34    32    27   ar
    35    25    19   ar
@<TRIPOS>MOLECULE
*****
 32 35 0 0 0
SMALL
GASTEIGER

@<TRIPOS>ATOM
      1 N         141.3504  143.9356  161.9041 N.am    1  UNL1       -0.2638
      2 C         141.9696  144.7878  162.9720 C.3     1  UNL1        0.1164
      3 C         140.6705  142.6498  162.2709 C.2     1  UNL1        0.3078
      4 O         140.0514  141.7976  161.2031 O.2     1  UNL1       -0.2523
      5 N         140.6099  142.2162  163.7056 N.am    1  UNL1       -0.2540
      6 C         141.1811  142.9600  164.8764 C.3     1  UNL1        0.1221
      7 C         140.8916  142.1661  166.1158 C.2     1  UNL1       -0.0024
      8 C         140.1416  140.9318  165.7110 C.2     1  UNL1       -0.0047
      9 C         139.9675  140.9627  164.2215 C.3     1  UNL1        0.1217
     10 C         142.6133  145.0709  155.2433 C.3     1  UNL1        0.0948
     11 C         141.5930  145.6699  156.1654 C.2     1  UNL1        0.2261
     12 O         140.6334  146.7025  155.6527 O.2     1  UNL1       -0.2749
     13 N         141.5323  145.2364  157.6000 N.am    1  UNL1       -0.2794
     14 C         142.4920  144.2037  158.1127 C.3     1  UNL1        0.0951
     15 C         142.4314  143.7701  159.5474 C.3     1  UNL1        0.0414
     16 C         141.4111  144.3692  160.4694 C.3     1  UNL1        0.0803
     17 C         140.4514  145.4018  159.9568 C.3     1  UNL1        0.0414
     18 C         140.5121  145.8354  158.5221 C.3     1  UNL1        0.0951
     19 C         141.2834  142.5409  167.5143 C.ar    1  UNL1        0.0271
     20 C         140.3092  143.2615  168.3985 C.ar    1  UNL1        0.0316
     21 C         140.7010  143.6363  169.7971 C.ar    1  UNL1        0.1403
     22 F         139.7268  144.3569  170.6813 F       1  UNL1       -0.2042
     23 C         142.0670  143.2905  170.3115 C.ar    1  UNL1        0.0319
     24 C         143.0412  142.5700  169.4273 C.ar    1  UNL1        0.0319
     25 C         142.6494  142.1952  168.0288 C.ar    1  UNL1        0.1400
     26 F         143.6235  141.4746  167.1446 F       1  UNL1       -0.2042
     27 C         139.2730  139.9227  163.3932 C.ar    1  UNL1       -0.0001
     28 C         139.7665  138.5063  163.3995 C.ar    1  UNL1       -0.0023
     29 C         139.0719  137.4663  162.5712 C.ar    1  UNL1       -0.0003
     30 C         137.8838  137.8429  161.7367 C.ar    1  UNL1       -0.0000
     31 C         137.3902  139.2593  161.7304 C.ar    1  UNL1       -0.0003
     32 C         138.0848  140.2993  162.5586 C.ar    1  UNL1       -0.0023
@<TRIPOS>BOND
     1    10    11    1
     2    11    12    2
     3    11    13   am
     4    13    14    1
     5    14    15    1
     6    15    16    1
     7    16     1    1
     8     1     2    1
     9     1     3   am
    10     3     4    2
    11     3     5   am
    12     5     6    1
    13     6     7    1
    14     7    19    1
    15    19    20   ar
    16    20    21   ar
    17    21    22    1
    18    21    23   ar
    19    23    24   ar
    20    24    25   ar
    21    25    26    1
    22     7     8    2
    23     8     9    1
    24     9    27    1
    25    27    28   ar
    26    28    29   ar
    27    29    30   ar
    28    30    31   ar
    29    31    32   ar
    30    16    17    1
    31    17    18    1
    32    18    13    1
    33     9     5    1
    34    32    27   ar
    35    25    19   ar
@<TRIPOS>MOLECULE
*****
 32 35 0 0 0
SMALL
GASTEIGER

@<TRIPOS>ATOM
      1 N         140.0985  143.4270  161.8745 N.am    1  UNL1       -0.2638
      2 C         139.4686  144.1785  163.0095 C.3     1  UNL1        0.1164
      3 C         140.8554  142.1599  162.1423 C.2     1  UNL1        0.3078
      4 O         141.4853  141.4084  161.0073 O.2     1  UNL1       -0.2523
      5 N         140.9823  141.6444  163.5452 N.am    1  UNL1       -0.2540
      6 C         140.4091  142.2843  164.7749 C.3     1  UNL1        0.1221
      7 C         140.7772  141.4338  165.9545 C.2     1  UNL1       -0.0024
      8 C         141.5779  140.2684  165.4538 C.2     1  UNL1       -0.0047
      9 C         141.7046  140.3985  163.9648 C.3     1  UNL1        0.1217
     10 C         138.8932  144.6652  155.2214 C.3     1  UNL1        0.0948
     11 C         139.5910  145.4890  156.2628 C.2     1  UNL1        0.2261
     12 O         140.1618  146.8282  155.9014 O.2     1  UNL1       -0.2749
     13 N         139.7179  144.9735  157.6658 N.am    1  UNL1       -0.2794
     14 C         139.1470  143.6342  158.0272 C.3     1  UNL1        0.0951
     15 C         139.2739  143.1187  159.4301 C.3     1  UNL1        0.0414
     16 C         139.9716  143.9425  160.4716 C.3     1  UNL1        0.0803
     17 C         140.5424  145.2817  160.1101 C.3     1  UNL1        0.0414
     18 C         140.4156  145.7972  158.7072 C.3     1  UNL1        0.0951
     19 C         140.4093  141.7018  167.3837 C.ar    1  UNL1        0.0271
     20 C         140.6912  143.0437  167.9917 C.ar    1  UNL1        0.0316
     21 C         140.3232  143.3117  169.4210 C.ar    1  UNL1        0.1403
     22 F         140.6051  144.6537  170.0291 F       1  UNL1       -0.2042
     23 C         139.6733  142.2378  170.2422 C.ar    1  UNL1        0.0319
     24 C         139.3914  140.8959  169.6342 C.ar    1  UNL1        0.0319
     25 C         139.7593  140.6279  168.2049 C.ar    1  UNL1        0.1400
     26 F         139.4774  139.2860  167.5969 F       1  UNL1       -0.2042
     27 C         142.4269  139.4494  163.0552 C.ar    1  UNL1       -0.0001
     28 C         141.6804  138.3278  162.3959 C.ar    1  UNL1       -0.0023
     29 C         142.4027  137.3787  161.4863 C.ar    1  UNL1       -0.0003
     30 C         143.8715  137.5513  161.2359 C.ar    1  UNL1       -0.0000
     31 C         144.6181  138.6729  161.8951 C.ar    1  UNL1       -0.0003
     32 C         143.8958  139.6220  162.8048 C.ar    1  UNL1       -0.0023
@<TRIPOS>BOND
     1    10    11    1
     2    11    12    2
     3    11    13   am
     4    13    14    1
     5    14    15    1
     6    15    16    1
     7    16     1    1
     8     1     2    1
     9     1     3   am
    10     3     4    2
    11     3     5   am
    12     5     6    1
    13     6     7    1
    14     7    19    1
    15    19    20   ar
    16    20    21   ar
    17    21    22    1
    18    21    23   ar
    19    23    24   ar
    20    24    25   ar
    21    25    26    1
    22     7     8    2
    23     8     9    1
    24     9    27    1
    25    27    28   ar
    26    28    29   ar
    27    29    30   ar
    28    30    31   ar
    29    31    32   ar
    30    16    17    1
    31    17    18    1
    32    18    13    1
    33     9     5    1
    34    32    27   ar
    35    25    19   ar
@<TRIPOS>MOLECULE
*****
 32 35 0 0 0
SMALL
GASTEIGER

@<TRIPOS>ATOM
      1 N         141.4531  139.3837  162.2653 N.am    1  UNL1       -0.2638
      2 C         141.9304  138.4859  163.3680 C.3     1  UNL1        0.1164
      3 C         141.0462  140.7949  162.5702 C.2     1  UNL1        0.3078
      4 O         140.5689  141.6927  161.4674 O.2     1  UNL1       -0.2523
      5 N         141.1168  141.3083  163.9778 N.am    1  UNL1       -0.2540
      6 C         141.5712  140.5315  165.1779 C.3     1  UNL1        0.1221
      7 C         141.4806  141.4318  166.3743 C.2     1  UNL1       -0.0024
      8 C         140.9701  142.7649  165.9137 C.2     1  UNL1       -0.0047
      9 C         140.7453  142.6886  164.4326 C.3     1  UNL1        0.1217
     10 C         142.4310  136.9794  155.9003 C.3     1  UNL1        0.0948
     11 C         141.1709  137.3301  156.6347 C.2     1  UNL1        0.2261
     12 O         139.8404  137.1673  155.9616 O.2     1  UNL1       -0.2749
     13 N         141.2414  137.8435  158.0424 N.am    1  UNL1       -0.2794
     14 C         142.5720  138.0062  158.7155 C.3     1  UNL1        0.0951
     15 C         142.6426  138.5196  160.1232 C.3     1  UNL1        0.0414
     16 C         141.3825  138.8703  160.8577 C.3     1  UNL1        0.0803
     17 C         140.0520  138.7075  160.1845 C.3     1  UNL1        0.0414
     18 C         139.9815  138.1941  158.7768 C.3     1  UNL1        0.0951
     19 C         141.8377  141.0635  167.7838 C.ar    1  UNL1        0.0271
     20 C         143.0383  141.6796  168.4387 C.ar    1  UNL1        0.0316
     21 C         143.3954  141.3114  169.8483 C.ar    1  UNL1        0.1403
     22 F         144.5961  141.9275  170.5032 F       1  UNL1       -0.2042
     23 C         142.5519  140.3270  170.6029 C.ar    1  UNL1        0.0319
     24 C         141.3513  139.7108  169.9481 C.ar    1  UNL1        0.0319
     25 C         140.9942  140.0791  168.5385 C.ar    1  UNL1        0.1400
     26 F         139.7936  139.4630  167.8836 F       1  UNL1       -0.2042
     27 C         140.2380  143.7979  163.5595 C.ar    1  UNL1       -0.0001
     28 C         141.2050  144.7397  162.9057 C.ar    1  UNL1       -0.0023
     29 C         140.6977  145.8490  162.0326 C.ar    1  UNL1       -0.0003
     30 C         139.2233  146.0163  161.8134 C.ar    1  UNL1       -0.0000
     31 C         138.2562  145.0744  162.4673 C.ar    1  UNL1       -0.0003
     32 C         138.7635  143.9652  163.3404 C.ar    1  UNL1       -0.0023
@<TRIPOS>BOND
     1    10    11    1
     2    11    12    2
     3    11    13   am
     4    13    14    1
     5    14    15    1
     6    15    16    1
     7    16     1    1
     8     1     2    1
     9     1     3   am
    10     3     4    2
    11     3     5   am
    12     5     6    1
    13     6     7    1
    14     7    19    1
    15    19    20   ar
    16    20    21   ar
    17    21    22    1
    18    21    23   ar
    19    23    24   ar
    20    24    25   ar
    21    25    26    1
    22     7     8    2
    23     8     9    1
    24     9    27    1
    25    27    28   ar
    26    28    29   ar
    27    29    30   ar
    28    30    31   ar
    29    31    32   ar
    30    16    17    1
    31    17    18    1
    32    18    13    1
    33     9     5    1
    34    32    27   ar
    35    25    19   ar
@<TRIPOS>MOLECULE
*****
 32 35 0 0 0
SMALL
GASTEIGER

@<TRIPOS>ATOM
      1 N         141.7176  139.7949  159.2116 N.am    1  UNL1       -0.2638
      2 C         141.2656  138.4516  159.7027 C.3     1  UNL1        0.1164
      3 C         142.5358  139.8990  157.9587 C.2     1  UNL1        0.3078
      4 O         142.9878  141.2423  157.4677 O.2     1  UNL1       -0.2523
      5 N         142.9021  138.6598  157.1970 N.am    1  UNL1       -0.2540
      6 C         142.5240  137.2553  157.5638 C.3     1  UNL1        0.1221
      7 C         143.0989  136.3350  156.5282 C.2     1  UNL1       -0.0024
      8 C         143.8323  137.1707  155.5213 C.2     1  UNL1       -0.0047
      9 C         143.7106  138.6075  155.9346 C.3     1  UNL1        0.1217
     10 C         141.1541  145.2577  163.3457 C.3     1  UNL1        0.0948
     11 C         140.2527  144.7516  162.2587 C.2     1  UNL1        0.2261
     12 O         138.9852  145.4848  161.9335 O.2     1  UNL1       -0.2749
     13 N         140.6190  143.5124  161.4969 N.am    1  UNL1       -0.2794
     14 C         141.8866  142.7793  161.8221 C.3     1  UNL1        0.0951
     15 C         142.2528  141.5401  161.0604 C.3     1  UNL1        0.0414
     16 C         141.3514  141.0341  159.9734 C.3     1  UNL1        0.0803
     17 C         140.0838  141.7672  159.6482 C.3     1  UNL1        0.0414
     18 C         139.7176  143.0064  160.4100 C.3     1  UNL1        0.0951
     19 C         142.9641  134.8413  156.5037 C.ar    1  UNL1        0.0271
     20 C         143.8811  133.9919  157.3329 C.ar    1  UNL1        0.0316
     21 C         143.7463  132.4981  157.3085 C.ar    1  UNL1        0.1403
     22 F         144.6634  131.6486  158.1377 F       1  UNL1       -0.2042
     23 C         142.6945  131.8538  156.4549 C.ar    1  UNL1        0.0319
     24 C         141.7775  132.7033  155.6257 C.ar    1  UNL1        0.0319
     25 C         141.9123  134.1970  155.6502 C.ar    1  UNL1        0.1400
     26 F         140.9953  135.0464  154.8210 F       1  UNL1       -0.2042
     27 C         144.2949  139.7852  155.2124 C.ar    1  UNL1       -0.0001
     28 C         145.6804  140.2555  155.5426 C.ar    1  UNL1       -0.0023
     29 C         146.2647  141.4332  154.8203 C.ar    1  UNL1       -0.0003
     30 C         145.4635  142.1405  153.7679 C.ar    1  UNL1       -0.0000
     31 C         144.0779  141.6702  153.4377 C.ar    1  UNL1       -0.0003
     32 C         143.4936  140.4925  154.1599 C.ar    1  UNL1       -0.0023
@<TRIPOS>BOND
     1    10    11    1
     2    11    12    2
     3    11    13   am
     4    13    14    1
     5    14    15    1
     6    15    16    1
     7    16     1    1
     8     1     2    1
     9     1     3   am
    10     3     4    2
    11     3     5   am
    12     5     6    1
    13     6     7    1
    14     7    19    1
    15    19    20   ar
    16    20    21   ar
    17    21    22    1
    18    21    23   ar
    19    23    24   ar
    20    24    25   ar
    21    25    26    1
    22     7     8    2
    23     8     9    1
    24     9    27    1
    25    27    28   ar
    26    28    29   ar
    27    29    30   ar
    28    30    31   ar
    29    31    32   ar
    30    16    17    1
    31    17    18    1
    32    18    13    1
    33     9     5    1
    34    32    27   ar
    35    25    19   ar
@<TRIPOS>MOLECULE
*****
 32 35 0 0 0
SMALL
GASTEIGER

@<TRIPOS>ATOM
      1 N         141.5064  144.0337  162.3510 N.am    1  UNL1       -0.2638
      2 C         141.4354  144.9221  163.5575 C.3     1  UNL1        0.1164
      3 C         141.8457  142.5810  162.5082 C.2     1  UNL1        0.3078
      4 O         141.9167  141.6926  161.3018 O.2     1  UNL1       -0.2523
      5 N         142.1140  142.0168  163.8719 N.am    1  UNL1       -0.2540
      6 C         142.0800  142.7788  165.1637 C.3     1  UNL1        0.1221
      7 C         142.4084  141.8244  166.2734 C.2     1  UNL1       -0.0024
      8 C         142.6453  140.4728  165.6676 C.2     1  UNL1       -0.0047
      9 C         142.4634  140.5917  164.1834 C.3     1  UNL1        0.1217
     10 C         141.2708  145.8603  155.7285 C.3     1  UNL1        0.0948
     11 C         140.4332  146.2905  156.8962 C.2     1  UNL1        0.2261
     12 O         139.3274  147.2848  156.7001 O.2     1  UNL1       -0.2749
     13 N         140.7015  145.7263  158.2599 N.am    1  UNL1       -0.2794
     14 C         141.8074  144.7319  158.4559 C.3     1  UNL1        0.0951
     15 C         142.0757  144.1677  159.8196 C.3     1  UNL1        0.0414
     16 C         141.2381  144.5979  160.9873 C.3     1  UNL1        0.0803
     17 C         140.1323  145.5922  160.7913 C.3     1  UNL1        0.0414
     18 C         139.8640  146.1564  159.4276 C.3     1  UNL1        0.0951
     19 C         142.4862  142.1625  167.7327 C.ar    1  UNL1        0.0271
     20 C         143.8208  142.3795  168.3822 C.ar    1  UNL1        0.0316
     21 C         143.8986  142.7176  169.8415 C.ar    1  UNL1        0.1403
     22 F         145.2332  142.9346  170.4910 F       1  UNL1       -0.2042
     23 C         142.6418  142.8386  170.6514 C.ar    1  UNL1        0.0319
     24 C         141.3072  142.6216  170.0020 C.ar    1  UNL1        0.0319
     25 C         141.2294  142.2835  168.5426 C.ar    1  UNL1        0.1400
     26 F         139.8949  142.0665  167.8932 F       1  UNL1       -0.2042
     27 C         142.6058  139.4806  163.1859 C.ar    1  UNL1       -0.0001
     28 C         143.9562  139.1426  162.6273 C.ar    1  UNL1       -0.0023
     29 C         144.0986  138.0315  161.6298 C.ar    1  UNL1       -0.0003
     30 C         142.8905  137.2583  161.1909 C.ar    1  UNL1       -0.0000
     31 C         141.5400  137.5963  161.7494 C.ar    1  UNL1       -0.0003
     32 C         141.3976  138.7074  162.7470 C.ar    1  UNL1       -0.0023
@<TRIPOS>BOND
     1    10    11    1
     2    11    12    2
     3    11    13   am
     4    13    14    1
     5    14    15    1
     6    15    16    1
     7    16     1    1
     8     1     2    1
     9     1     3   am
    10     3     4    2
    11     3     5   am
    12     5     6    1
    13     6     7    1
    14     7    19    1
    15    19    20   ar
    16    20    21   ar
    17    21    22    1
    18    21    23   ar
    19    23    24   ar
    20    24    25   ar
    21    25    26    1
    22     7     8    2
    23     8     9    1
    24     9    27    1
    25    27    28   ar
    26    28    29   ar
    27    29    30   ar
    28    30    31   ar
    29    31    32   ar
    30    16    17    1
    31    17    18    1
    32    18    13    1
    33     9     5    1
    34    32    27   ar
    35    25    19   ar
@<TRIPOS>MOLECULE
*****
 32 35 0 0 0
SMALL
GASTEIGER

@<TRIPOS>ATOM
      1 N         141.1222  139.3889  164.1174 N.am    1  UNL1       -0.2638
      2 C         141.3403  138.0575  163.4620 C.3     1  UNL1        0.1164
      3 C         140.8165  140.5957  163.2806 C.2     1  UNL1        0.3078
      4 O         140.5985  141.9272  163.9360 O.2     1  UNL1       -0.2523
      5 N         140.7289  140.4710  161.7883 N.am    1  UNL1       -0.2540
      6 C         140.9221  139.2120  160.9959 C.3     1  UNL1        0.1221
      7 C         140.7453  139.5463  159.5444 C.2     1  UNL1       -0.0024
      8 C         140.4429  141.0118  159.4396 C.2     1  UNL1       -0.0047
      9 C         140.4328  141.5832  160.8265 C.3     1  UNL1        0.1217
     10 C         140.2320  140.1355  170.8924 C.3     1  UNL1        0.0948
     11 C         141.4726  139.8879  170.0864 C.2     1  UNL1        0.2261
     12 O         142.8007  139.7650  170.7726 O.2     1  UNL1       -0.2749
     13 N         141.3850  139.7631  168.5941 N.am    1  UNL1       -0.2794
     14 C         140.0568  139.8860  167.9079 C.3     1  UNL1        0.0951
     15 C         139.9692  139.7613  166.4157 C.3     1  UNL1        0.0414
     16 C         141.2098  139.5137  165.6096 C.3     1  UNL1        0.0803
     17 C         142.5380  139.3908  166.2959 C.3     1  UNL1        0.0414
     18 C         142.6255  139.5155  167.7881 C.3     1  UNL1        0.0951
     19 C         140.8522  138.5840  158.3987 C.ar    1  UNL1        0.0271
     20 C         139.6453  138.2758  157.5630 C.ar    1  UNL1        0.0316
     21 C         139.7522  137.3135  156.4174 C.ar    1  UNL1        0.1403
     22 F         138.5452  137.0053  155.5817 F       1  UNL1       -0.2042
     23 C         141.0660  136.6594  156.1074 C.ar    1  UNL1        0.0319
     24 C         142.2729  136.9676  156.9431 C.ar    1  UNL1        0.0319
     25 C         142.1660  137.9299  158.0887 C.ar    1  UNL1        0.1400
     26 F         143.3729  138.2381  158.9244 F       1  UNL1       -0.2042
     27 C         140.1723  143.0155  161.1879 C.ar    1  UNL1       -0.0001
     28 C         138.9104  143.3900  161.9071 C.ar    1  UNL1       -0.0023
     29 C         138.6498  144.8223  162.2686 C.ar    1  UNL1       -0.0003
     30 C         139.6513  145.8801  161.9108 C.ar    1  UNL1       -0.0000
     31 C         140.9133  145.5057  161.1916 C.ar    1  UNL1       -0.0003
     32 C         141.1738  144.0734  160.8302 C.ar    1  UNL1       -0.0023
@<TRIPOS>BOND
     1    10    11    1
     2    11    12    2
     3    11    13   am
     4    13    14    1
     5    14    15    1
     6    15    16    1
     7    16     1    1
     8     1     2    1
     9     1     3   am
    10     3     4    2
    11     3     5   am
    12     5     6    1
    13     6     7    1
    14     7    19    1
    15    19    20   ar
    16    20    21   ar
    17    21    22    1
    18    21    23   ar
    19    23    24   ar
    20    24    25   ar
    21    25    26    1
    22     7     8    2
    23     8     9    1
    24     9    27    1
    25    27    28   ar
    26    28    29   ar
    27    29    30   ar
    28    30    31   ar
    29    31    32   ar
    30    16    17    1
    31    17    18    1
    32    18    13    1
    33     9     5    1
    34    32    27   ar
    35    25    19   ar
@<TRIPOS>MOLECULE
*****
 32 35 0 0 0
SMALL
GASTEIGER

@<TRIPOS>ATOM
      1 N         141.5502  139.0424  163.7607 N.am    1  UNL1       -0.2638
      2 C         141.7568  137.6922  163.1408 C.3     1  UNL1        0.1164
      3 C         141.2794  140.2337  162.8903 C.2     1  UNL1        0.3078
      4 O         141.0728  141.5839  163.5102 O.2     1  UNL1       -0.2523
      5 N         141.2152  140.0748  161.4002 N.am    1  UNL1       -0.2540
      6 C         141.4005  138.7942  160.6412 C.3     1  UNL1        0.1221
      7 C         141.2543  139.0966  159.1793 C.2     1  UNL1       -0.0024
      8 C         140.9787  140.5639  159.0347 C.2     1  UNL1       -0.0047
      9 C         140.9545  141.1685  160.4072 C.3     1  UNL1        0.1217
     10 C         140.5795  140.0757  170.4868 C.3     1  UNL1        0.0948
     11 C         141.8068  139.6781  169.7214 C.2     1  UNL1        0.2261
     12 O         143.0982  139.4395  170.4462 O.2     1  UNL1       -0.2749
     13 N         141.7427  139.5192  168.2312 N.am    1  UNL1       -0.2794
     14 C         140.4512  139.7578  167.5064 C.3     1  UNL1        0.0951
     15 C         140.3870  139.5989  166.0162 C.3     1  UNL1        0.0414
     16 C         141.6143  139.2013  165.2509 C.3     1  UNL1        0.0803
     17 C         142.9057  138.9627  165.9756 C.3     1  UNL1        0.0414
     18 C         142.9699  139.1216  167.4658 C.3     1  UNL1        0.0951
     19 C         141.3644  138.1055  158.0587 C.ar    1  UNL1        0.0271
     20 C         142.6106  137.2853  157.9027 C.ar    1  UNL1        0.0316
     21 C         142.7207  136.2942  156.7822 C.ar    1  UNL1        0.1403
     22 F         143.9669  135.4740  156.6261 F       1  UNL1       -0.2042
     23 C         141.5847  136.1233  155.8177 C.ar    1  UNL1        0.0319
     24 C         140.3385  136.9435  155.9737 C.ar    1  UNL1        0.0319
     25 C         140.2284  137.9346  157.0942 C.ar    1  UNL1        0.1400
     26 F         138.9823  138.7548  157.2503 F       1  UNL1       -0.2042
     27 C         140.7122  142.6131  160.7301 C.ar    1  UNL1       -0.0001
     28 C         139.3967  143.0418  161.3093 C.ar    1  UNL1       -0.0023
     29 C         139.1544  144.4864  161.6323 C.ar    1  UNL1       -0.0003
     30 C         140.2277  145.5024  161.3759 C.ar    1  UNL1       -0.0000
     31 C         141.5433  145.0738  160.7967 C.ar    1  UNL1       -0.0003
     32 C         141.7856  143.6292  160.4738 C.ar    1  UNL1       -0.0023
@<TRIPOS>BOND
     1    10    11    1
     2    11    12    2
     3    11    13   am
     4    13    14    1
     5    14    15    1
     6    15    16    1
     7    16     1    1
     8     1     2    1
     9     1     3   am
    10     3     4    2
    11     3     5   am
    12     5     6    1
    13     6     7    1
    14     7    19    1
    15    19    20   ar
    16    20    21   ar
    17    21    22    1
    18    21    23   ar
    19    23    24   ar
    20    24    25   ar
    21    25    26    1
    22     7     8    2
    23     8     9    1
    24     9    27    1
    25    27    28   ar
    26    28    29   ar
    27    29    30   ar
    28    30    31   ar
    29    31    32   ar
    30    16    17    1
    31    17    18    1
    32    18    13    1
    33     9     5    1
    34    32    27   ar
    35    25    19   ar
