@<TRIPOS>MOLECULE
*****
 31 35 0 0 0
SMALL
GASTEIGER

@<TRIPOS>ATOM
      1 C         139.2074  140.6278  164.5043 C.ar    1  UNL1       -0.0175
      2 C         139.5240  139.6337  163.4266 C.ar    1  UNL1        0.0023
      3 C         139.9683  140.1088  162.0749 C.ar    1  UNL1        0.0736
      4 C         140.2849  139.1146  160.9973 C.ar    1  UNL1        0.2634
      5 O         140.1574  137.6453  161.2713 O.2     1  UNL1       -0.2669
      6 N         140.7292  139.5896  159.6456 N.ar    1  UNL1       -0.2777
      7 C         140.8567  141.0589  159.3716 C.ar    1  UNL1        0.1808
      8 N         140.5400  142.0531  160.4493 N.ar    1  UNL1       -0.2252
      9 C         140.0958  141.5780  161.8009 C.ar    1  UNL1        0.0875
     10 C         139.7791  142.5722  162.8786 C.ar    1  UNL1        0.0176
     11 C         139.9067  144.0414  162.6046 C.ar    1  UNL1        0.0015
     12 C         139.5900  145.0355  163.6823 C.ar    1  UNL1        0.0000
     13 C         139.1458  144.5604  165.0339 C.ar    1  UNL1       -0.0000
     14 C         139.0182  143.0912  165.3079 C.ar    1  UNL1       -0.0003
     15 C         139.3349  142.0971  164.2303 C.ar    1  UNL1       -0.0022
     16 C         141.0458  138.5955  158.5680 C.3     1  UNL1        0.1166
     17 C         139.9746  138.1567  157.6141 C.3     1  UNL1        0.0252
     18 C         140.2913  137.1626  156.5364 C.3     1  UNL1        0.0021
     19 C         141.6792  136.6072  156.4126 C.3     1  UNL1        0.0026
     20 C         142.7504  137.0460  157.3665 C.3     1  UNL1        0.0312
     21 C         142.4337  138.0402  158.4442 C.3     1  UNL1        0.1312
     22 O         143.5050  138.4789  159.3980 O.3     1  UNL1       -0.3825
     23 H         144.3359  138.0281  159.1807 H       1  UNL1        0.2104
     24 C         138.7631  140.1527  165.8559 C.3     1  UNL1        0.0542
     25 C         142.7612  139.5570  170.2898 C.3     1  UNL1        0.0521
     26 C         141.7617  139.7059  169.1814 C.ar    1  UNL1        0.0594
     27 C         142.2237  139.7416  167.7548 C.ar    1  UNL1        0.0144
     28 C         141.2241  139.8905  166.6462 C.ar    1  UNL1       -0.0012
     29 C         139.7627  140.0038  166.9644 C.ar    1  UNL1        0.0013
     30 C         139.3007  139.9681  168.3911 C.ar    1  UNL1        0.0945
     31 N         140.3002  139.8192  169.4995 N.ar    1  UNL1       -0.2485
@<TRIPOS>BOND
     1    25    26    1
     2    26    27   ar
     3    27    28   ar
     4    28    29   ar
     5    29    24    1
     6    24     1    1
     7     1     2   ar
     8     2     3   ar
     9     3     4   ar
    10     4     5    2
    11     4     6   ar
    12    16     6    1
    13    16    17    1
    14    17    18    1
    15    18    19    1
    16    19    20    1
    17    20    21    1
    18    21    22    1
    19     6     7   ar
    20     7     8   ar
    21     8     9   ar
    22     9    10   ar
    23    10    11   ar
    24    11    12   ar
    25    12    13   ar
    26    13    14   ar
    27    14    15   ar
    28    29    30   ar
    29    30    31   ar
    30    31    26   ar
    31    15     1   ar
    32     9     3   ar
    33    15    10   ar
    34    21    16    1
    35    22    23    1
@<TRIPOS>MOLECULE
*****
 31 35 0 0 0
SMALL
GASTEIGER

@<TRIPOS>ATOM
      1 C         143.1025  139.9509  164.6210 C.ar    1  UNL1       -0.0175
      2 C         142.6797  139.0778  163.4770 C.ar    1  UNL1        0.0023
      3 C         142.5783  139.6502  162.0942 C.ar    1  UNL1        0.0736
      4 C         142.1555  138.7770  160.9502 C.ar    1  UNL1        0.2634
      5 O         141.8341  137.3314  161.1889 O.2     1  UNL1       -0.2669
      6 N         142.0542  139.3494  159.5674 N.ar    1  UNL1       -0.2777
      7 C         142.3757  140.7950  159.3286 C.ar    1  UNL1        0.1808
      8 N         142.7985  141.6681  160.4727 N.ar    1  UNL1       -0.2252
      9 C         142.8998  141.0957  161.8554 C.ar    1  UNL1        0.0875
     10 C         143.3226  141.9689  162.9995 C.ar    1  UNL1        0.0176
     11 C         143.6441  143.4145  162.7607 C.ar    1  UNL1        0.0015
     12 C         144.0669  144.2876  163.9048 C.ar    1  UNL1        0.0000
     13 C         144.1682  143.7152  165.2876 C.ar    1  UNL1       -0.0000
     14 C         143.8468  142.2697  165.5263 C.ar    1  UNL1       -0.0003
     15 C         143.4240  141.3965  164.3823 C.ar    1  UNL1       -0.0022
     16 C         141.6314  138.4763  158.4233 C.3     1  UNL1        0.1166
     17 C         142.6483  137.6456  157.6982 C.3     1  UNL1        0.0252
     18 C         142.2255  136.7725  156.5541 C.3     1  UNL1        0.0021
     19 C         140.7858  136.7299  156.1352 C.3     1  UNL1        0.0026
     20 C         139.7688  137.5606  156.8605 C.3     1  UNL1        0.0312
     21 C         140.1917  138.4337  158.0045 C.3     1  UNL1        0.1312
     22 O         139.1747  139.2643  158.7297 O.3     1  UNL1       -0.3825
     23 H         138.2999  139.1211  158.3359 H       1  UNL1        0.2104
     24 C         143.2038  139.3785  166.0038 C.3     1  UNL1        0.0542
     25 C         138.8310  140.3723  169.9901 C.3     1  UNL1        0.0521
     26 C         139.9242  140.1238  168.9935 C.ar    1  UNL1        0.0594
     27 C         139.6176  140.1360  167.5253 C.ar    1  UNL1        0.0144
     28 C         140.7108  139.8876  166.5286 C.ar    1  UNL1       -0.0012
     29 C         142.1107  139.6270  167.0003 C.ar    1  UNL1        0.0013
     30 C         142.4173  139.6148  168.4687 C.ar    1  UNL1        0.0945
     31 N         141.3241  139.8632  169.4652 N.ar    1  UNL1       -0.2485
@<TRIPOS>BOND
     1    25    26    1
     2    26    27   ar
     3    27    28   ar
     4    28    29   ar
     5    29    24    1
     6    24     1    1
     7     1     2   ar
     8     2     3   ar
     9     3     4   ar
    10     4     5    2
    11     4     6   ar
    12    16     6    1
    13    16    17    1
    14    17    18    1
    15    18    19    1
    16    19    20    1
    17    20    21    1
    18    21    22    1
    19     6     7   ar
    20     7     8   ar
    21     8     9   ar
    22     9    10   ar
    23    10    11   ar
    24    11    12   ar
    25    12    13   ar
    26    13    14   ar
    27    14    15   ar
    28    29    30   ar
    29    30    31   ar
    30    31    26   ar
    31    15     1   ar
    32     9     3   ar
    33    15    10   ar
    34    21    16    1
    35    22    23    1
@<TRIPOS>MOLECULE
*****
 31 35 0 0 0
SMALL
GASTEIGER

@<TRIPOS>ATOM
      1 C         141.3342  142.4867  163.9893 C.ar    1  UNL1       -0.0175
      2 C         140.7108  143.1799  162.8142 C.ar    1  UNL1        0.0023
      3 C         141.3742  143.1209  161.4702 C.ar    1  UNL1        0.0736
      4 C         140.7507  143.8142  160.2950 C.ar    1  UNL1        0.2634
      5 O         139.4640  144.5663  160.4640 O.2     1  UNL1       -0.2669
      6 N         141.4141  143.7552  158.9510 N.ar    1  UNL1       -0.2777
      7 C         142.7009  143.0030  158.7820 C.ar    1  UNL1        0.1808
      8 N         143.3242  142.3098  159.9571 N.ar    1  UNL1       -0.2252
      9 C         142.6609  142.3688  161.3012 C.ar    1  UNL1        0.0875
     10 C         143.2843  141.6755  162.4763 C.ar    1  UNL1        0.0176
     11 C         144.5710  140.9234  162.3073 C.ar    1  UNL1        0.0015
     12 C         145.1944  140.2302  163.4824 C.ar    1  UNL1        0.0000
     13 C         144.5311  140.2892  164.8264 C.ar    1  UNL1       -0.0000
     14 C         143.2443  141.0413  164.9954 C.ar    1  UNL1       -0.0003
     15 C         142.6210  141.7345  163.8203 C.ar    1  UNL1       -0.0022
     16 C         140.7907  144.4484  157.7759 C.3     1  UNL1        0.1166
     17 C         139.5916  143.8503  157.1019 C.3     1  UNL1        0.0252
     18 C         138.9682  144.5435  155.9267 C.3     1  UNL1        0.0021
     19 C         139.5439  145.8348  155.4257 C.3     1  UNL1        0.0026
     20 C         140.7431  146.4329  156.0998 C.3     1  UNL1        0.0312
     21 C         141.3664  145.7397  157.2749 C.3     1  UNL1        0.1312
     22 O         142.5655  146.3379  157.9489 O.3     1  UNL1       -0.3825
     23 H         142.8072  147.1653  157.5042 H       1  UNL1        0.2104
     24 C         140.6709  142.5457  165.3334 C.3     1  UNL1        0.0542
     25 C         137.3411  137.9332  167.2405 C.3     1  UNL1        0.0521
     26 C         138.1736  139.0863  166.7637 C.ar    1  UNL1        0.0594
     27 C         138.0853  139.5349  165.3351 C.ar    1  UNL1        0.0144
     28 C         138.9178  140.6880  164.8583 C.ar    1  UNL1       -0.0012
     29 C         139.8384  141.3926  165.8101 C.ar    1  UNL1        0.0013
     30 C         139.9267  140.9439  167.2388 C.ar    1  UNL1        0.0945
     31 N         139.0942  139.7908  167.7156 N.ar    1  UNL1       -0.2485
@<TRIPOS>BOND
     1    25    26    1
     2    26    27   ar
     3    27    28   ar
     4    28    29   ar
     5    29    24    1
     6    24     1    1
     7     1     2   ar
     8     2     3   ar
     9     3     4   ar
    10     4     5    2
    11     4     6   ar
    12    16     6    1
    13    16    17    1
    14    17    18    1
    15    18    19    1
    16    19    20    1
    17    20    21    1
    18    21    22    1
    19     6     7   ar
    20     7     8   ar
    21     8     9   ar
    22     9    10   ar
    23    10    11   ar
    24    11    12   ar
    25    12    13   ar
    26    13    14   ar
    27    14    15   ar
    28    29    30   ar
    29    30    31   ar
    30    31    26   ar
    31    15     1   ar
    32     9     3   ar
    33    15    10   ar
    34    21    16    1
    35    22    23    1
@<TRIPOS>MOLECULE
*****
 31 35 0 0 0
SMALL
GASTEIGER

@<TRIPOS>ATOM
      1 C         140.7226  140.3478  164.4529 C.ar    1  UNL1       -0.0175
      2 C         140.1689  141.1536  163.3154 C.ar    1  UNL1        0.0023
      3 C         141.0643  141.5721  162.1870 C.ar    1  UNL1        0.0736
      4 C         140.5105  142.3779  161.0494 C.ar    1  UNL1        0.2634
      5 O         139.0615  142.7652  161.0402 O.2     1  UNL1       -0.2669
      6 N         141.4059  142.7963  159.9210 N.ar    1  UNL1       -0.2777
      7 C         142.8550  142.4089  159.9302 C.ar    1  UNL1        0.1808
      8 N         143.4087  141.6031  161.0678 N.ar    1  UNL1       -0.2252
      9 C         142.5134  141.1847  162.1962 C.ar    1  UNL1        0.0875
     10 C         143.0671  140.3789  163.3338 C.ar    1  UNL1        0.0176
     11 C         144.5162  139.9915  163.3429 C.ar    1  UNL1        0.0015
     12 C         145.0699  139.1857  164.4805 C.ar    1  UNL1        0.0000
     13 C         144.1745  138.7673  165.6089 C.ar    1  UNL1       -0.0000
     14 C         142.7255  139.1547  165.5997 C.ar    1  UNL1       -0.0003
     15 C         142.1718  139.9605  164.4621 C.ar    1  UNL1       -0.0022
     16 C         140.8522  143.6021  158.7835 C.3     1  UNL1        0.1166
     17 C         140.1799  142.9126  157.6334 C.3     1  UNL1        0.0252
     18 C         139.6262  143.7184  156.4958 C.3     1  UNL1        0.0021
     19 C         139.7447  145.2137  156.5083 C.3     1  UNL1        0.0026
     20 C         140.4171  145.9031  157.6584 C.3     1  UNL1        0.0312
     21 C         140.9707  145.0974  158.7959 C.3     1  UNL1        0.1312
     22 O         141.6430  145.7868  159.9460 O.3     1  UNL1       -0.3825
     23 H         141.6347  146.7454  159.7978 H       1  UNL1        0.2104
     24 C         139.8273  139.9294  165.5813 C.3     1  UNL1        0.0542
     25 C         140.0504  142.8372  170.8248 C.3     1  UNL1        0.0521
     26 C         139.9946  142.1103  169.5140 C.ar    1  UNL1        0.0594
     27 C         140.4645  142.7870  168.2605 C.ar    1  UNL1        0.0144
     28 C         140.4087  142.0601  166.9496 C.ar    1  UNL1       -0.0012
     29 C         139.8831  140.6564  166.8922 C.ar    1  UNL1        0.0013
     30 C         139.4132  139.9796  168.1457 C.ar    1  UNL1        0.0945
     31 N         139.4690  140.7066  169.4566 N.ar    1  UNL1       -0.2485
@<TRIPOS>BOND
     1    25    26    1
     2    26    27   ar
     3    27    28   ar
     4    28    29   ar
     5    29    24    1
     6    24     1    1
     7     1     2   ar
     8     2     3   ar
     9     3     4   ar
    10     4     5    2
    11     4     6   ar
    12    16     6    1
    13    16    17    1
    14    17    18    1
    15    18    19    1
    16    19    20    1
    17    20    21    1
    18    21    22    1
    19     6     7   ar
    20     7     8   ar
    21     8     9   ar
    22     9    10   ar
    23    10    11   ar
    24    11    12   ar
    25    12    13   ar
    26    13    14   ar
    27    14    15   ar
    28    29    30   ar
    29    30    31   ar
    30    31    26   ar
    31    15     1   ar
    32     9     3   ar
    33    15    10   ar
    34    21    16    1
    35    22    23    1
@<TRIPOS>MOLECULE
*****
 31 35 0 0 0
SMALL
GASTEIGER

@<TRIPOS>ATOM
      1 C         142.7748  141.1671  164.2493 C.ar    1  UNL1       -0.0175
      2 C         142.7365  142.2345  163.1962 C.ar    1  UNL1        0.0023
      3 C         142.0877  141.9589  161.8722 C.ar    1  UNL1        0.0736
      4 C         142.0494  143.0264  160.8190 C.ar    1  UNL1        0.2634
      5 O         142.6599  144.3695  161.0900 O.2     1  UNL1       -0.2669
      6 N         141.4006  142.7508  159.4950 N.ar    1  UNL1       -0.2777
      7 C         140.7900  141.4077  159.2241 C.ar    1  UNL1        0.1808
      8 N         140.8283  140.3403  160.2772 N.ar    1  UNL1       -0.2252
      9 C         141.4771  140.6159  161.6012 C.ar    1  UNL1        0.0875
     10 C         141.5154  139.5483  162.6543 C.ar    1  UNL1        0.0176
     11 C         140.9048  138.2053  162.3834 C.ar    1  UNL1        0.0015
     12 C         140.9431  137.1379  163.4365 C.ar    1  UNL1        0.0000
     13 C         141.5920  137.4135  164.7605 C.ar    1  UNL1       -0.0000
     14 C         142.2025  138.7565  165.0315 C.ar    1  UNL1       -0.0003
     15 C         142.1642  139.8239  163.9784 C.ar    1  UNL1       -0.0022
     16 C         141.3623  143.8183  158.4419 C.3     1  UNL1        0.1166
     17 C         142.1586  143.6568  157.1811 C.3     1  UNL1        0.0252
     18 C         142.1204  144.7243  156.1279 C.3     1  UNL1        0.0021
     19 C         141.2857  145.9532  156.3356 C.3     1  UNL1        0.0026
     20 C         140.4894  146.1146  157.5965 C.3     1  UNL1        0.0312
     21 C         140.5277  145.0472  158.6496 C.3     1  UNL1        0.1312
     22 O         139.7313  145.2087  159.9105 O.3     1  UNL1       -0.3825
     23 H         139.2524  146.0518  159.8846 H       1  UNL1        0.2104
     24 C         143.4236  141.4426  165.5733 C.3     1  UNL1        0.0542
     25 C         140.1459  143.5338  170.1431 C.3     1  UNL1        0.0521
     26 C         140.9653  143.0110  169.0007 C.ar    1  UNL1        0.0594
     27 C         140.3352  142.8151  167.6537 C.ar    1  UNL1        0.0144
     28 C         141.1546  142.2923  166.5111 C.ar    1  UNL1       -0.0012
     29 C         142.6042  141.9654  166.7157 C.ar    1  UNL1        0.0013
     30 C         143.2343  142.1613  168.0628 C.ar    1  UNL1        0.0945
     31 N         142.4149  142.6841  169.2053 N.ar    1  UNL1       -0.2485
@<TRIPOS>BOND
     1    25    26    1
     2    26    27   ar
     3    27    28   ar
     4    28    29   ar
     5    29    24    1
     6    24     1    1
     7     1     2   ar
     8     2     3   ar
     9     3     4   ar
    10     4     5    2
    11     4     6   ar
    12    16     6    1
    13    16    17    1
    14    17    18    1
    15    18    19    1
    16    19    20    1
    17    20    21    1
    18    21    22    1
    19     6     7   ar
    20     7     8   ar
    21     8     9   ar
    22     9    10   ar
    23    10    11   ar
    24    11    12   ar
    25    12    13   ar
    26    13    14   ar
    27    14    15   ar
    28    29    30   ar
    29    30    31   ar
    30    31    26   ar
    31    15     1   ar
    32     9     3   ar
    33    15    10   ar
    34    21    16    1
    35    22    23    1
@<TRIPOS>MOLECULE
*****
 31 35 0 0 0
SMALL
GASTEIGER

@<TRIPOS>ATOM
      1 C         139.8034  141.2552  164.3724 C.ar    1  UNL1       -0.0175
      2 C         139.6972  142.3194  163.3208 C.ar    1  UNL1        0.0023
      3 C         140.0286  141.9990  161.8933 C.ar    1  UNL1        0.0736
      4 C         139.9224  143.0633  160.8416 C.ar    1  UNL1        0.2634
      5 O         139.4849  144.4480  161.2174 O.2     1  UNL1       -0.2669
      6 N         140.2539  142.7429  159.4142 N.ar    1  UNL1       -0.2777
      7 C         140.6915  141.3582  159.0385 C.ar    1  UNL1        0.1808
      8 N         140.7976  140.2939  160.0902 N.ar    1  UNL1       -0.2252
      9 C         140.4662  140.6143  161.5176 C.ar    1  UNL1        0.0875
     10 C         140.5724  139.5500  162.5693 C.ar    1  UNL1        0.0176
     11 C         141.0100  138.1654  162.1936 C.ar    1  UNL1        0.0015
     12 C         141.1162  137.1011  163.2452 C.ar    1  UNL1        0.0000
     13 C         140.7848  137.4215  164.6727 C.ar    1  UNL1       -0.0000
     14 C         140.3472  138.8062  165.0484 C.ar    1  UNL1       -0.0003
     15 C         140.2410  139.8704  163.9967 C.ar    1  UNL1       -0.0022
     16 C         140.1477  143.8072  158.3625 C.3     1  UNL1        0.1166
     17 C         139.2172  143.6231  157.2006 C.3     1  UNL1        0.0252
     18 C         139.1109  144.6873  156.1488 C.3     1  UNL1        0.0021
     19 C         139.9353  145.9357  156.2591 C.3     1  UNL1        0.0026
     20 C         140.8658  146.1197  157.4212 C.3     1  UNL1        0.0312
     21 C         140.9720  145.0555  158.4728 C.3     1  UNL1        0.1312
     22 O         141.9025  145.2395  159.6348 O.3     1  UNL1       -0.3825
     23 H         142.3559  146.0933  159.5539 H       1  UNL1        0.2104
     24 C         139.4720  141.5756  165.7998 C.3     1  UNL1        0.0542
     25 C         143.8760  142.3764  169.7952 C.3     1  UNL1        0.0521
     26 C         142.7750  142.1762  168.7964 C.ar    1  UNL1        0.0594
     27 C         143.0470  142.3623  167.3331 C.ar    1  UNL1        0.0144
     28 C         141.9459  142.1621  166.3342 C.ar    1  UNL1       -0.0012
     29 C         140.5730  141.7758  166.7987 C.ar    1  UNL1        0.0013
     30 C         140.3010  141.5897  168.2621 C.ar    1  UNL1        0.0945
     31 N         141.4020  141.7899  169.2609 N.ar    1  UNL1       -0.2485
@<TRIPOS>BOND
     1    25    26    1
     2    26    27   ar
     3    27    28   ar
     4    28    29   ar
     5    29    24    1
     6    24     1    1
     7     1     2   ar
     8     2     3   ar
     9     3     4   ar
    10     4     5    2
    11     4     6   ar
    12    16     6    1
    13    16    17    1
    14    17    18    1
    15    18    19    1
    16    19    20    1
    17    20    21    1
    18    21    22    1
    19     6     7   ar
    20     7     8   ar
    21     8     9   ar
    22     9    10   ar
    23    10    11   ar
    24    11    12   ar
    25    12    13   ar
    26    13    14   ar
    27    14    15   ar
    28    29    30   ar
    29    30    31   ar
    30    31    26   ar
    31    15     1   ar
    32     9     3   ar
    33    15    10   ar
    34    21    16    1
    35    22    23    1
@<TRIPOS>MOLECULE
*****
 31 35 0 0 0
SMALL
GASTEIGER

@<TRIPOS>ATOM
      1 C         139.9352  141.4668  164.6308 C.ar    1  UNL1       -0.0175
      2 C         140.5156  141.7615  163.2794 C.ar    1  UNL1        0.0023
      3 C         140.5571  140.6895  162.2310 C.ar    1  UNL1        0.0736
      4 C         141.1376  140.9843  160.8796 C.ar    1  UNL1        0.2634
      5 O         141.6764  142.3510  160.5767 O.2     1  UNL1       -0.2669
      6 N         141.1792  139.9124  159.8312 N.ar    1  UNL1       -0.2777
      7 C         140.6403  138.5456  160.1342 C.ar    1  UNL1        0.1808
      8 N         140.0599  138.2509  161.4855 N.ar    1  UNL1       -0.2252
      9 C         140.0183  139.3229  162.5339 C.ar    1  UNL1        0.0875
     10 C         139.4379  139.0281  163.8854 C.ar    1  UNL1        0.0176
     11 C         138.8991  137.6614  164.1883 C.ar    1  UNL1        0.0015
     12 C         138.3187  137.3667  165.5397 C.ar    1  UNL1        0.0000
     13 C         138.2771  138.4386  166.5881 C.ar    1  UNL1       -0.0000
     14 C         138.8159  139.8053  166.2852 C.ar    1  UNL1       -0.0003
     15 C         139.3963  140.1000  164.9338 C.ar    1  UNL1       -0.0022
     16 C         141.7596  140.2071  158.4798 C.3     1  UNL1        0.1166
     17 C         140.8969  140.8020  157.4066 C.3     1  UNL1        0.0252
     18 C         141.4772  141.0968  156.0552 C.3     1  UNL1        0.0021
     19 C         142.9203  140.7966  155.7770 C.3     1  UNL1        0.0026
     20 C         143.7830  140.2017  156.8503 C.3     1  UNL1        0.0312
     21 C         143.2026  139.9069  158.2016 C.3     1  UNL1        0.1312
     22 O         144.0653  139.3120  159.2748 O.3     1  UNL1       -0.3825
     23 H         144.9636  139.1819  158.9325 H       1  UNL1        0.2104
     24 C         139.8936  142.5387  165.6792 C.3     1  UNL1        0.0542
     25 C         143.9130  142.5359  170.1338 C.3     1  UNL1        0.0521
     26 C         142.9082  142.5366  169.0202 C.ar    1  UNL1        0.0594
     27 C         143.3459  142.2478  167.6149 C.ar    1  UNL1        0.0144
     28 C         142.3411  142.2485  166.5012 C.ar    1  UNL1       -0.0012
     29 C         140.8984  142.5380  166.7928 C.ar    1  UNL1        0.0013
     30 C         140.4607  142.8267  168.1983 C.ar    1  UNL1        0.0945
     31 N         141.4656  142.8260  169.3119 N.ar    1  UNL1       -0.2485
@<TRIPOS>BOND
     1    25    26    1
     2    26    27   ar
     3    27    28   ar
     4    28    29   ar
     5    29    24    1
     6    24     1    1
     7     1     2   ar
     8     2     3   ar
     9     3     4   ar
    10     4     5    2
    11     4     6   ar
    12    16     6    1
    13    16    17    1
    14    17    18    1
    15    18    19    1
    16    19    20    1
    17    20    21    1
    18    21    22    1
    19     6     7   ar
    20     7     8   ar
    21     8     9   ar
    22     9    10   ar
    23    10    11   ar
    24    11    12   ar
    25    12    13   ar
    26    13    14   ar
    27    14    15   ar
    28    29    30   ar
    29    30    31   ar
    30    31    26   ar
    31    15     1   ar
    32     9     3   ar
    33    15    10   ar
    34    21    16    1
    35    22    23    1
@<TRIPOS>MOLECULE
*****
 31 35 0 0 0
SMALL
GASTEIGER

@<TRIPOS>ATOM
      1 C         141.7268  143.4333  163.5557 C.ar    1  UNL1       -0.0175
      2 C         140.9681  143.9626  162.3750 C.ar    1  UNL1        0.0023
      3 C         141.5892  143.9334  161.0099 C.ar    1  UNL1        0.0736
      4 C         140.8304  144.4627  159.8292 C.ar    1  UNL1        0.2634
      5 O         139.4505  145.0212  160.0135 O.2     1  UNL1       -0.2669
      6 N         141.4516  144.4336  158.4641 N.ar    1  UNL1       -0.2777
      7 C         142.8315  143.8751  158.2798 C.ar    1  UNL1        0.1808
      8 N         143.5903  143.3458  159.4606 N.ar    1  UNL1       -0.2252
      9 C         142.9691  143.3750  160.8256 C.ar    1  UNL1        0.0875
     10 C         143.7279  142.8457  162.0063 C.ar    1  UNL1        0.0176
     11 C         145.1078  142.2872  161.8220 C.ar    1  UNL1        0.0015
     12 C         145.8666  141.7579  163.0027 C.ar    1  UNL1        0.0000
     13 C         145.2454  141.7871  164.3678 C.ar    1  UNL1       -0.0000
     14 C         143.8655  142.3455  164.5521 C.ar    1  UNL1       -0.0003
     15 C         143.1068  142.8748  163.3714 C.ar    1  UNL1       -0.0022
     16 C         140.6928  144.9629  157.2834 C.3     1  UNL1        0.1166
     17 C         141.1575  146.2097  156.5911 C.3     1  UNL1        0.0252
     18 C         140.3987  146.7391  155.4103 C.3     1  UNL1        0.0021
     19 C         139.1754  146.0215  154.9219 C.3     1  UNL1        0.0026
     20 C         138.7108  144.7746  155.6144 C.3     1  UNL1        0.0312
     21 C         139.4695  144.2453  156.7951 C.3     1  UNL1        0.1312
     22 O         139.0049  142.9984  157.4874 O.3     1  UNL1       -0.3825
     23 H         138.2070  142.6634  157.0491 H       1  UNL1        0.2104
     24 C         141.1057  143.4624  164.9207 C.3     1  UNL1        0.0542
     25 C         137.9280  138.7619  166.8717 C.3     1  UNL1        0.0521
     26 C         138.7224  139.9370  166.3840 C.ar    1  UNL1        0.0594
     27 C         139.8315  140.4940  167.2262 C.ar    1  UNL1        0.0144
     28 C         140.6260  141.6692  166.7385 C.ar    1  UNL1       -0.0012
     29 C         140.3113  142.2873  165.4085 C.ar    1  UNL1        0.0013
     30 C         139.2021  141.7302  164.5662 C.ar    1  UNL1        0.0945
     31 N         138.4077  140.5550  165.0539 N.ar    1  UNL1       -0.2485
@<TRIPOS>BOND
     1    25    26    1
     2    26    27   ar
     3    27    28   ar
     4    28    29   ar
     5    29    24    1
     6    24     1    1
     7     1     2   ar
     8     2     3   ar
     9     3     4   ar
    10     4     5    2
    11     4     6   ar
    12    16     6    1
    13    16    17    1
    14    17    18    1
    15    18    19    1
    16    19    20    1
    17    20    21    1
    18    21    22    1
    19     6     7   ar
    20     7     8   ar
    21     8     9   ar
    22     9    10   ar
    23    10    11   ar
    24    11    12   ar
    25    12    13   ar
    26    13    14   ar
    27    14    15   ar
    28    29    30   ar
    29    30    31   ar
    30    31    26   ar
    31    15     1   ar
    32     9     3   ar
    33    15    10   ar
    34    21    16    1
    35    22    23    1
@<TRIPOS>MOLECULE
*****
 31 35 0 0 0
SMALL
GASTEIGER

@<TRIPOS>ATOM
      1 C         142.0250  142.5039  164.1886 C.ar    1  UNL1       -0.0175
      2 C         142.6230  141.6990  163.0730 C.ar    1  UNL1        0.0023
      3 C         141.8311  141.4423  161.8253 C.ar    1  UNL1        0.0736
      4 C         142.4291  140.6374  160.7096 C.ar    1  UNL1        0.2634
      5 O         143.8191  140.0893  160.8418 O.2     1  UNL1       -0.2669
      6 N         141.6371  140.3807  159.4619 N.ar    1  UNL1       -0.2777
      7 C         140.2471  140.9289  159.3298 C.ar    1  UNL1        0.1808
      8 N         139.6491  141.7337  160.4453 N.ar    1  UNL1       -0.2252
      9 C         140.4411  141.9905  161.6931 C.ar    1  UNL1        0.0875
     10 C         139.8430  142.7954  162.8087 C.ar    1  UNL1        0.0176
     11 C         138.4531  143.3435  162.6766 C.ar    1  UNL1        0.0015
     12 C         137.8551  144.1483  163.7922 C.ar    1  UNL1        0.0000
     13 C         138.6471  144.4050  165.0399 C.ar    1  UNL1       -0.0000
     14 C         140.0370  143.8569  165.1721 C.ar    1  UNL1       -0.0003
     15 C         140.6350  143.0521  164.0565 C.ar    1  UNL1       -0.0022
     16 C         142.2351  139.5759  158.3463 C.3     1  UNL1        0.1166
     17 C         141.9914  138.0976  158.2738 C.3     1  UNL1        0.0252
     18 C         142.5894  137.2927  157.1582 C.3     1  UNL1        0.0021
     19 C         143.4311  137.9661  156.1151 C.3     1  UNL1        0.0026
     20 C         143.6748  139.4445  156.1876 C.3     1  UNL1        0.0312
     21 C         143.0768  140.2493  157.3032 C.3     1  UNL1        0.1312
     22 O         143.3205  141.7276  157.3756 O.3     1  UNL1       -0.3825
     23 H         143.8798  141.9999  156.6314 H       1  UNL1        0.2104
     24 C         142.8170  142.7606  165.4363 C.3     1  UNL1        0.0542
     25 C         142.5740  138.8702  169.9976 C.3     1  UNL1        0.0521
     26 C         142.6348  139.8428  168.8573 C.ar    1  UNL1        0.0594
     27 C         142.4904  139.3543  167.4465 C.ar    1  UNL1        0.0144
     28 C         142.5512  140.3269  166.3061 C.ar    1  UNL1       -0.0012
     29 C         142.7563  141.7880  166.5766 C.ar    1  UNL1        0.0013
     30 C         142.9006  142.2765  167.9876 C.ar    1  UNL1        0.0945
     31 N         142.8398  141.3039  169.1279 N.ar    1  UNL1       -0.2485
@<TRIPOS>BOND
     1    25    26    1
     2    26    27   ar
     3    27    28   ar
     4    28    29   ar
     5    29    24    1
     6    24     1    1
     7     1     2   ar
     8     2     3   ar
     9     3     4   ar
    10     4     5    2
    11     4     6   ar
    12    16     6    1
    13    16    17    1
    14    17    18    1
    15    18    19    1
    16    19    20    1
    17    20    21    1
    18    21    22    1
    19     6     7   ar
    20     7     8   ar
    21     8     9   ar
    22     9    10   ar
    23    10    11   ar
    24    11    12   ar
    25    12    13   ar
    26    13    14   ar
    27    14    15   ar
    28    29    30   ar
    29    30    31   ar
    30    31    26   ar
    31    15     1   ar
    32     9     3   ar
    33    15    10   ar
    34    21    16    1
    35    22    23    1
