@<TRIPOS>MOLECULE
*****
 38 43 0 0 0
SMALL
GASTEIGER

@<TRIPOS>ATOM
      1 C         137.7703  142.7519  163.7621 C.3     1  UNL1        0.0932
      2 C         137.8135  142.7590  162.2627 C.3     1  UNL1        0.0286
      3 C         137.9511  141.4688  161.5102 C.3     1  UNL1        0.0196
      4 C         138.0453  140.1713  162.2571 C.3     1  UNL1        0.0732
      5 C         138.0021  140.1641  163.7564 C.3     1  UNL1        0.0196
      6 C         137.8645  141.4545  164.5089 C.3     1  UNL1        0.0286
      7 C         137.9710  140.8529  162.7130 C.3     1  UNL1        0.1564
      8 O         137.8466  142.0196  163.3934 O.3     1  UNL1       -0.3571
      9 N         138.1828  138.8811  161.5045 N.3     1  UNL1       -0.2666
     10 C         136.9669  138.0573  161.1997 C.3     1  UNL1        0.0899
     11 C         139.5363  138.4146  161.0568 C.3     1  UNL1        0.1187
     12 C         140.7086  138.5108  161.9877 C.ar    1  UNL1        0.0768
     13 C         140.8033  137.5948  163.1718 C.ar    1  UNL1        0.0194
     14 C         141.9755  137.6911  164.1026 C.ar    1  UNL1        0.0411
     15 C         143.0532  138.7034  163.8495 C.ar    1  UNL1        0.1708
     16 C         142.9585  139.6194  162.6654 C.ar    1  UNL1        0.1682
     17 N         141.7862  139.5231  161.7345 N.ar    1  UNL1       -0.2304
     18 N         144.0360  140.6317  162.4123 N.am    1  UNL1       -0.2639
     19 C         145.2083  140.7279  163.3431 C.2     1  UNL1        0.2718
     20 O         146.2859  141.7402  163.0900 O.2     1  UNL1       -0.2707
     21 C         145.3030  139.8119  164.5271 C.3     1  UNL1        0.2898
     22 O         144.2254  138.7996  164.7803 O.3     1  UNL1       -0.4628
     23 H         143.9739  141.2329  161.6351 H       1  UNL1        0.1565
     24 C         137.6328  144.0421  164.5146 C.3     1  UNL1        0.0320
     25 C         138.8569  144.8124  164.9125 C.3     1  UNL1        0.0327
     26 C         140.9941  142.0044  167.7048 C.ar    1  UNL1        0.2250
     27 C         142.3556  141.4851  167.3491 C.ar    1  UNL1        0.0593
     28 C         143.0048  141.9018  166.0626 C.ar    1  UNL1        0.0254
     29 C         142.2924  142.8378  165.1319 C.ar    1  UNL1        0.0990
     30 N         142.9415  143.2545  163.8454 N.ar    1  UNL1       -0.2400
     31 C         142.2291  144.1905  162.9146 C.ar    1  UNL1        0.1281
     32 C         140.8675  144.7098  163.2703 C.ar    1  UNL1        0.1566
     33 F         140.1551  145.6458  162.3396 F       1  UNL1       -0.2028
     34 C         140.2184  144.2931  164.5568 C.ar    1  UNL1        0.0261
     35 C         140.9309  143.3571  165.4876 C.ar    1  UNL1        0.1002
     36 N         140.2817  142.9404  166.7741 N.ar    1  UNL1       -0.2104
     37 C         139.5043  140.3464  169.0395 C.3     1  UNL1        0.2542
     38 O         140.3450  141.5877  168.9913 O.3     1  UNL1       -0.4561
@<TRIPOS>BOND
     1    37    38    1
     2    38    26    1
     3    26    27   ar
     4    27    28   ar
     5    28    29   ar
     6    29    30   ar
     7    30    31   ar
     8    31    32   ar
     9    32    33    1
    10    32    34   ar
    11    34    25    1
    12    25    24    1
    13    24     1    1
    14     1     2    1
    15     2     3    1
    16     3     4    1
    17     4     9    1
    18     9    10    1
    19     9    11    1
    20    11    12    1
    21    12    13   ar
    22    13    14   ar
    23    14    15   ar
    24    15    16   ar
    25    16    17   ar
    26    16    18    1
    27    18    19   am
    28    19    20    2
    29    19    21    1
    30    21    22    1
    31     4     5    1
    32     5     6    1
    33     4     7    1
    34     7     8    1
    35    34    35   ar
    36    35    36   ar
    37    36    26   ar
    38    35    29   ar
    39     6     1    1
    40     8     1    1
    41    17    12   ar
    42    22    15    1
    43    18    23    1
@<TRIPOS>MOLECULE
*****
 38 43 0 0 0
SMALL
GASTEIGER

@<TRIPOS>ATOM
      1 C         142.8989  144.2088  162.8417 C.3     1  UNL1        0.0932
      2 C         141.5983  144.9174  163.0792 C.3     1  UNL1        0.0286
      3 C         140.4000  144.5871  162.2397 C.3     1  UNL1        0.0196
      4 C         140.5022  143.5481  161.1625 C.3     1  UNL1        0.0732
      5 C         141.8028  142.8395  160.9250 C.3     1  UNL1        0.0196
      6 C         143.0011  143.1699  161.7647 C.3     1  UNL1        0.0286
      7 C         141.1860  143.6952  161.5970 C.3     1  UNL1        0.1564
      8 O         142.2695  143.9939  162.3561 O.3     1  UNL1       -0.3571
      9 N         139.3039  143.2178  160.3230 N.3     1  UNL1       -0.2666
     10 C         139.2920  143.5644  158.8636 C.3     1  UNL1        0.0899
     11 C         138.1176  142.5407  160.9428 C.3     1  UNL1        0.1187
     12 C         138.3012  141.2755  161.7274 C.ar    1  UNL1        0.0768
     13 C         138.7705  140.0279  161.0396 C.ar    1  UNL1        0.0194
     14 C         138.9541  138.7627  161.8242 C.ar    1  UNL1        0.0411
     15 C         138.6684  138.7452  163.2967 C.ar    1  UNL1        0.1708
     16 C         138.1991  139.9928  163.9845 C.ar    1  UNL1        0.1682
     17 N         138.0155  141.2580  163.1998 N.ar    1  UNL1       -0.2304
     18 N         137.9135  139.9753  165.4569 N.am    1  UNL1       -0.2639
     19 C         138.0971  138.7102  166.2415 C.2     1  UNL1        0.2718
     20 O         137.8114  138.6926  167.7140 O.2     1  UNL1       -0.2707
     21 C         138.5664  137.4625  165.5537 C.3     1  UNL1        0.2898
     22 O         138.8521  137.4800  164.0812 O.3     1  UNL1       -0.4628
     23 H         137.6054  140.7942  165.9084 H       1  UNL1        0.1565
     24 C         144.0971  144.5392  163.6813 C.3     1  UNL1        0.0320
     25 C         144.3377  143.8047  164.9669 C.3     1  UNL1        0.0327
     26 C         141.1512  141.9835  167.5706 C.ar    1  UNL1        0.2250
     27 C         140.9881  140.4934  167.6249 C.ar    1  UNL1        0.0593
     28 C         141.8872  139.6104  166.8113 C.ar    1  UNL1        0.0254
     29 C         142.9494  140.2174  165.9435 C.ar    1  UNL1        0.0990
     30 N         143.8485  139.3344  165.1299 N.ar    1  UNL1       -0.2400
     31 C         144.9107  139.9414  164.2621 C.ar    1  UNL1        0.1281
     32 C         145.0738  141.4316  164.2077 C.ar    1  UNL1        0.1566
     33 F         146.1359  142.0386  163.3398 F       1  UNL1       -0.2028
     34 C         144.1747  142.3146  165.0212 C.ar    1  UNL1        0.0261
     35 C         143.1125  141.7075  165.8891 C.ar    1  UNL1        0.1002
     36 N         142.2134  142.5906  166.7027 N.ar    1  UNL1       -0.2104
     37 C         140.6604  143.2831  169.7660 C.3     1  UNL1        0.2542
     38 O         140.2521  142.8666  168.3841 O.3     1  UNL1       -0.4561
@<TRIPOS>BOND
     1    37    38    1
     2    38    26    1
     3    26    27   ar
     4    27    28   ar
     5    28    29   ar
     6    29    30   ar
     7    30    31   ar
     8    31    32   ar
     9    32    33    1
    10    32    34   ar
    11    34    25    1
    12    25    24    1
    13    24     1    1
    14     1     2    1
    15     2     3    1
    16     3     4    1
    17     4     9    1
    18     9    10    1
    19     9    11    1
    20    11    12    1
    21    12    13   ar
    22    13    14   ar
    23    14    15   ar
    24    15    16   ar
    25    16    17   ar
    26    16    18    1
    27    18    19   am
    28    19    20    2
    29    19    21    1
    30    21    22    1
    31     4     5    1
    32     5     6    1
    33     4     7    1
    34     7     8    1
    35    34    35   ar
    36    35    36   ar
    37    36    26   ar
    38    35    29   ar
    39     6     1    1
    40     8     1    1
    41    17    12   ar
    42    22    15    1
    43    18    23    1
@<TRIPOS>MOLECULE
*****
 38 43 0 0 0
SMALL
GASTEIGER

@<TRIPOS>ATOM
      1 C         139.3221  143.1907  164.9256 C.3     1  UNL1        0.0932
      2 C         140.1907  142.4778  165.9193 C.3     1  UNL1        0.0286
      3 C         139.9417  141.0320  166.2318 C.3     1  UNL1        0.0196
      4 C         138.8241  140.2991  165.5507 C.3     1  UNL1        0.0732
      5 C         137.9556  141.0120  164.5570 C.3     1  UNL1        0.0196
      6 C         138.2046  142.4578  164.2445 C.3     1  UNL1        0.0286
      7 C         138.9220  141.0908  165.3469 C.3     1  UNL1        0.1564
      8 O         139.1471  142.3981  165.0643 O.3     1  UNL1       -0.3571
      9 N         138.5752  138.8533  165.8632 N.3     1  UNL1       -0.2666
     10 C         137.6410  138.4763  166.9746 C.3     1  UNL1        0.0899
     11 C         139.2603  137.7845  165.0643 C.3     1  UNL1        0.1187
     12 C         139.5269  137.9949  163.6032 C.ar    1  UNL1        0.0768
     13 C         138.4034  137.8968  162.6142 C.ar    1  UNL1        0.0194
     14 C         138.6699  138.1072  161.1531 C.ar    1  UNL1        0.0411
     15 C         140.0599  138.4157  160.6810 C.ar    1  UNL1        0.1708
     16 C         141.1833  138.5138  161.6701 C.ar    1  UNL1        0.1682
     17 N         140.9168  138.3034  163.1312 N.ar    1  UNL1       -0.2304
     18 N         142.5733  138.8223  161.1981 N.am    1  UNL1       -0.2639
     19 C         142.8398  139.0326  159.7370 C.2     1  UNL1        0.2718
     20 O         144.2298  139.3411  159.2650 O.2     1  UNL1       -0.2707
     21 C         141.7163  138.9345  158.7480 C.3     1  UNL1        0.2898
     22 O         140.3263  138.6261  159.2200 O.3     1  UNL1       -0.4628
     23 H         143.3107  138.8866  161.8472 H       1  UNL1        0.1565
     24 C         139.5711  144.6364  164.6131 C.3     1  UNL1        0.0320
     25 C         140.9108  145.0726  164.0981 C.3     1  UNL1        0.0327
     26 C         144.2298  142.2076  163.0853 C.ar    1  UNL1        0.2250
     27 C         144.5982  141.9631  161.6520 C.ar    1  UNL1        0.0593
     28 C         143.8604  142.6737  160.5562 C.ar    1  UNL1        0.0254
     29 C         142.7540  143.6287  160.8938 C.ar    1  UNL1        0.0990
     30 N         142.0162  144.3392  159.7981 N.ar    1  UNL1       -0.2400
     31 C         140.9098  145.2942  160.1357 C.ar    1  UNL1        0.1281
     32 C         140.5414  145.5387  161.5691 C.ar    1  UNL1        0.1566
     33 F         139.4350  146.4937  161.9067 F       1  UNL1       -0.2028
     34 C         141.2792  144.8281  162.6648 C.ar    1  UNL1        0.0261
     35 C         142.3856  143.8731  162.3271 C.ar    1  UNL1        0.1002
     36 N         143.1235  143.1625  163.4229 N.ar    1  UNL1       -0.2104
     37 C         145.0424  139.9989  164.1859 C.3     1  UNL1        0.2542
     38 O         144.9677  141.4970  164.1810 O.3     1  UNL1       -0.4561
@<TRIPOS>BOND
     1    37    38    1
     2    38    26    1
     3    26    27   ar
     4    27    28   ar
     5    28    29   ar
     6    29    30   ar
     7    30    31   ar
     8    31    32   ar
     9    32    33    1
    10    32    34   ar
    11    34    25    1
    12    25    24    1
    13    24     1    1
    14     1     2    1
    15     2     3    1
    16     3     4    1
    17     4     9    1
    18     9    10    1
    19     9    11    1
    20    11    12    1
    21    12    13   ar
    22    13    14   ar
    23    14    15   ar
    24    15    16   ar
    25    16    17   ar
    26    16    18    1
    27    18    19   am
    28    19    20    2
    29    19    21    1
    30    21    22    1
    31     4     5    1
    32     5     6    1
    33     4     7    1
    34     7     8    1
    35    34    35   ar
    36    35    36   ar
    37    36    26   ar
    38    35    29   ar
    39     6     1    1
    40     8     1    1
    41    17    12   ar
    42    22    15    1
    43    18    23    1
@<TRIPOS>MOLECULE
*****
 38 43 0 0 0
SMALL
GASTEIGER

@<TRIPOS>ATOM
      1 C         139.8521  137.8297  164.1620 C.3     1  UNL1        0.0932
      2 C         139.4561  138.1772  162.7575 C.3     1  UNL1        0.0286
      3 C         140.5049  138.3072  161.6930 C.3     1  UNL1        0.0196
      4 C         141.9496  138.0897  162.0329 C.3     1  UNL1        0.0732
      5 C         142.3456  137.7422  163.4373 C.3     1  UNL1        0.0196
      6 C         141.2968  137.6122  164.5019 C.3     1  UNL1        0.0286
      7 C         141.4108  138.0075  162.6500 C.3     1  UNL1        0.1564
      8 O         140.4625  137.8900  163.6126 O.3     1  UNL1       -0.3571
      9 N         142.9983  138.2196  160.9684 N.3     1  UNL1       -0.2666
     10 C         142.9021  137.3988  159.7165 C.3     1  UNL1        0.0899
     11 C         144.1433  139.1704  161.1556 C.3     1  UNL1        0.1187
     12 C         143.9383  140.4525  161.9069 C.ar    1  UNL1        0.0768
     13 C         144.7813  140.7604  163.1088 C.ar    1  UNL1        0.0194
     14 C         144.5764  142.0425  163.8600 C.ar    1  UNL1        0.0411
     15 C         143.5285  143.0166  163.4093 C.ar    1  UNL1        0.1708
     16 C         142.6856  142.7087  162.2074 C.ar    1  UNL1        0.1682
     17 N         142.8905  141.4266  161.4561 N.ar    1  UNL1       -0.2304
     18 N         141.6378  143.6828  161.7567 N.am    1  UNL1       -0.2639
     19 C         141.4329  144.9648  162.5079 C.2     1  UNL1        0.2718
     20 O         140.3850  145.9390  162.0572 O.2     1  UNL1       -0.2707
     21 C         142.2758  145.2728  163.7098 C.3     1  UNL1        0.2898
     22 O         143.3236  144.2987  164.1605 O.3     1  UNL1       -0.4628
     23 H         141.0845  143.4807  160.9678 H       1  UNL1        0.1565
     24 C         138.8034  137.6998  165.2265 C.3     1  UNL1        0.0320
     25 C         138.4798  138.8700  166.1074 C.3     1  UNL1        0.0327
     26 C         142.1857  140.2079  168.2815 C.ar    1  UNL1        0.2250
     27 C         142.7815  141.5533  167.9902 C.ar    1  UNL1        0.0593
     28 C         142.1420  142.4528  166.9743 C.ar    1  UNL1        0.0254
     29 C         140.9068  142.0068  166.2496 C.ar    1  UNL1        0.0990
     30 N         140.2673  142.9062  165.2337 N.ar    1  UNL1       -0.2400
     31 C         139.0321  142.4603  164.5090 C.ar    1  UNL1        0.1281
     32 C         138.4362  141.1148  164.8002 C.ar    1  UNL1        0.1566
     33 F         137.2009  140.6689  164.0756 F       1  UNL1       -0.2028
     34 C         139.0756  140.2154  165.8162 C.ar    1  UNL1        0.0261
     35 C         140.3110  140.6614  166.5409 C.ar    1  UNL1        0.1002
     36 N         140.9504  139.7620  167.5568 N.ar    1  UNL1       -0.2104
     37 C         143.0298  139.7908  170.7029 C.3     1  UNL1        0.2542
     38 O         142.8251  139.3085  169.2974 O.3     1  UNL1       -0.4561
@<TRIPOS>BOND
     1    37    38    1
     2    38    26    1
     3    26    27   ar
     4    27    28   ar
     5    28    29   ar
     6    29    30   ar
     7    30    31   ar
     8    31    32   ar
     9    32    33    1
    10    32    34   ar
    11    34    25    1
    12    25    24    1
    13    24     1    1
    14     1     2    1
    15     2     3    1
    16     3     4    1
    17     4     9    1
    18     9    10    1
    19     9    11    1
    20    11    12    1
    21    12    13   ar
    22    13    14   ar
    23    14    15   ar
    24    15    16   ar
    25    16    17   ar
    26    16    18    1
    27    18    19   am
    28    19    20    2
    29    19    21    1
    30    21    22    1
    31     4     5    1
    32     5     6    1
    33     4     7    1
    34     7     8    1
    35    34    35   ar
    36    35    36   ar
    37    36    26   ar
    38    35    29   ar
    39     6     1    1
    40     8     1    1
    41    17    12   ar
    42    22    15    1
    43    18    23    1
@<TRIPOS>MOLECULE
*****
 38 43 0 0 0
SMALL
GASTEIGER

@<TRIPOS>ATOM
      1 C         141.4931  144.7014  162.5543 C.3     1  UNL1        0.0932
      2 C         141.8805  144.3663  163.9641 C.3     1  UNL1        0.0286
      3 C         142.8633  143.2648  164.2302 C.3     1  UNL1        0.0196
      4 C         143.4587  142.4984  163.0864 C.3     1  UNL1        0.0732
      5 C         143.0712  142.8335  161.6766 C.3     1  UNL1        0.0196
      6 C         142.0884  143.9351  161.4105 C.3     1  UNL1        0.0286
      7 C         142.9243  143.0935  162.8910 C.3     1  UNL1        0.1564
      8 O         142.0356  144.0895  162.6504 O.3     1  UNL1       -0.3571
      9 N         144.4414  141.3969  163.3524 N.3     1  UNL1       -0.2666
     10 C         145.8845  141.7228  163.6001 C.3     1  UNL1        0.0899
     11 C         143.9811  139.9694  163.3708 C.3     1  UNL1        0.1187
     12 C         142.5912  139.6353  163.8255 C.ar    1  UNL1        0.0768
     13 C         141.6037  139.0567  162.8559 C.ar    1  UNL1        0.0194
     14 C         140.2139  138.7226  163.3105 C.ar    1  UNL1        0.0411
     15 C         139.8115  138.9671  164.7348 C.ar    1  UNL1        0.1708
     16 C         140.7990  139.5457  165.7044 C.ar    1  UNL1        0.1682
     17 N         142.1889  139.8798  165.2497 N.ar    1  UNL1       -0.2304
     18 N         140.3967  139.7902  167.1285 N.am    1  UNL1       -0.2639
     19 C         139.0069  139.4561  167.5831 C.2     1  UNL1        0.2718
     20 O         138.6045  139.7006  169.0074 O.2     1  UNL1       -0.2707
     21 C         138.0194  138.8775  166.6136 C.3     1  UNL1        0.2898
     22 O         138.4217  138.6330  165.1894 O.3     1  UNL1       -0.4628
     23 H         141.0449  140.1699  167.7649 H       1  UNL1        0.1565
     24 C         140.5103  145.8029  162.2882 C.3     1  UNL1        0.0320
     25 C         139.0389  145.5115  162.2882 C.3     1  UNL1        0.0327
     26 C         138.6283  142.2287  159.2379 C.ar    1  UNL1        0.2250
     27 C         138.1317  140.8759  159.6542 C.ar    1  UNL1        0.0593
     28 C         137.7720  140.6174  161.0873 C.ar    1  UNL1        0.0254
     29 C         137.9088  141.7116  162.1041 C.ar    1  UNL1        0.0990
     30 N         137.5490  141.4531  163.5371 N.ar    1  UNL1       -0.2400
     31 C         137.6859  142.5473  164.5539 C.ar    1  UNL1        0.1281
     32 C         138.1825  143.9002  164.1376 C.ar    1  UNL1        0.1566
     33 F         138.3193  144.9944  165.1544 F       1  UNL1       -0.2028
     34 C         138.5423  144.1587  162.7046 C.ar    1  UNL1        0.0261
     35 C         138.4054  143.0644  161.6878 C.ar    1  UNL1        0.1002
     36 N         138.7652  143.3229  160.2547 N.ar    1  UNL1       -0.2104
     37 C         139.9208  143.6090  157.4563 C.3     1  UNL1        0.2542
     38 O         138.9881  142.4872  157.8048 O.3     1  UNL1       -0.4561
@<TRIPOS>BOND
     1    37    38    1
     2    38    26    1
     3    26    27   ar
     4    27    28   ar
     5    28    29   ar
     6    29    30   ar
     7    30    31   ar
     8    31    32   ar
     9    32    33    1
    10    32    34   ar
    11    34    25    1
    12    25    24    1
    13    24     1    1
    14     1     2    1
    15     2     3    1
    16     3     4    1
    17     4     9    1
    18     9    10    1
    19     9    11    1
    20    11    12    1
    21    12    13   ar
    22    13    14   ar
    23    14    15   ar
    24    15    16   ar
    25    16    17   ar
    26    16    18    1
    27    18    19   am
    28    19    20    2
    29    19    21    1
    30    21    22    1
    31     4     5    1
    32     5     6    1
    33     4     7    1
    34     7     8    1
    35    34    35   ar
    36    35    36   ar
    37    36    26   ar
    38    35    29   ar
    39     6     1    1
    40     8     1    1
    41    17    12   ar
    42    22    15    1
    43    18    23    1
@<TRIPOS>MOLECULE
*****
 38 43 0 0 0
SMALL
GASTEIGER

@<TRIPOS>ATOM
      1 C         143.2350  142.0338  161.7895 C.3     1  UNL1        0.0932
      2 C         141.9325  141.9419  161.0513 C.3     1  UNL1        0.0286
      3 C         140.8335  142.9197  161.3447 C.3     1  UNL1        0.0196
      4 C         141.0371  143.9896  162.3763 C.3     1  UNL1        0.0732
      5 C         142.3396  144.0815  163.1144 C.3     1  UNL1        0.0196
      6 C         143.4386  143.1036  162.8210 C.3     1  UNL1        0.0286
      7 C         141.6684  143.4764  162.2499 C.3     1  UNL1        0.1564
      8 O         142.6622  142.5922  161.9846 O.3     1  UNL1       -0.3571
      9 N         139.9381  144.9674  162.6696 N.3     1  UNL1       -0.2666
     10 C         139.8005  146.2113  161.8427 C.3     1  UNL1        0.0899
     11 C         138.9768  144.7013  163.7899 C.3     1  UNL1        0.1187
     12 C         139.1659  143.5027  164.6718 C.ar    1  UNL1        0.0768
     13 C         138.4580  142.2189  164.3543 C.ar    1  UNL1        0.0194
     14 C         138.6471  141.0203  165.2360 C.ar    1  UNL1        0.0411
     15 C         139.5441  141.1054  166.4353 C.ar    1  UNL1        0.1708
     16 C         140.2520  142.3892  166.7528 C.ar    1  UNL1        0.1682
     17 N         140.0629  143.5878  165.8710 N.ar    1  UNL1       -0.2304
     18 N         141.1490  142.4743  167.9520 N.am    1  UNL1       -0.2639
     19 C         141.3380  141.2757  168.8338 C.2     1  UNL1        0.2718
     20 O         142.2350  141.3609  170.0331 O.2     1  UNL1       -0.2707
     21 C         140.6301  139.9919  168.5163 C.3     1  UNL1        0.2898
     22 O         139.7332  139.9068  167.3171 O.3     1  UNL1       -0.4628
     23 H         141.6136  143.3169  168.1604 H       1  UNL1        0.1565
     24 C         144.3340  141.0560  161.4961 C.3     1  UNL1        0.0320
     25 C         144.1442  139.6000  161.8033 C.3     1  UNL1        0.0327
     26 C         139.9276  138.0320  161.9086 C.ar    1  UNL1        0.2250
     27 C         139.3152  137.6142  163.2126 C.ar    1  UNL1        0.0593
     28 C         140.1083  137.7191  164.4814 C.ar    1  UNL1        0.0254
     29 C         141.5138  138.2417  164.4463 C.ar    1  UNL1        0.0990
     30 N         142.3069  138.3466  165.7152 N.ar    1  UNL1       -0.2400
     31 C         143.7124  138.8693  165.6801 C.ar    1  UNL1        0.1281
     32 C         144.3249  139.2871  164.3761 C.ar    1  UNL1        0.1566
     33 F         145.7304  139.8098  164.3410 F       1  UNL1       -0.2028
     34 C         143.5318  139.1822  163.1072 C.ar    1  UNL1        0.0261
     35 C         142.1262  138.6595  163.1424 C.ar    1  UNL1        0.1002
     36 N         141.3331  138.5547  161.8735 N.ar    1  UNL1       -0.2104
     37 C         139.2557  138.9910  159.5894 C.3     1  UNL1        0.2542
     38 O         139.1345  137.9271  160.6398 O.3     1  UNL1       -0.4561
@<TRIPOS>BOND
     1    37    38    1
     2    38    26    1
     3    26    27   ar
     4    27    28   ar
     5    28    29   ar
     6    29    30   ar
     7    30    31   ar
     8    31    32   ar
     9    32    33    1
    10    32    34   ar
    11    34    25    1
    12    25    24    1
    13    24     1    1
    14     1     2    1
    15     2     3    1
    16     3     4    1
    17     4     9    1
    18     9    10    1
    19     9    11    1
    20    11    12    1
    21    12    13   ar
    22    13    14   ar
    23    14    15   ar
    24    15    16   ar
    25    16    17   ar
    26    16    18    1
    27    18    19   am
    28    19    20    2
    29    19    21    1
    30    21    22    1
    31     4     5    1
    32     5     6    1
    33     4     7    1
    34     7     8    1
    35    34    35   ar
    36    35    36   ar
    37    36    26   ar
    38    35    29   ar
    39     6     1    1
    40     8     1    1
    41    17    12   ar
    42    22    15    1
    43    18    23    1
@<TRIPOS>MOLECULE
*****
 38 43 0 0 0
SMALL
GASTEIGER

@<TRIPOS>ATOM
      1 C         140.0893  137.7864  163.3677 C.3     1  UNL1        0.0932
      2 C         141.5754  137.6365  163.5058 C.3     1  UNL1        0.0286
      3 C         142.4663  137.8739  162.3227 C.3     1  UNL1        0.0196
      4 C         141.8712  138.2612  161.0013 C.3     1  UNL1        0.0732
      5 C         140.3851  138.4111  160.8632 C.3     1  UNL1        0.0196
      6 C         139.4942  138.1737  162.0464 C.3     1  UNL1        0.0286
      7 C         141.3426  138.1416  161.6212 C.3     1  UNL1        0.1564
      8 O         140.5370  137.9269  162.6910 O.3     1  UNL1       -0.3571
      9 N         142.7621  138.4985  159.8182 N.3     1  UNL1       -0.2666
     10 C         142.6108  137.6584  158.5848 C.3     1  UNL1        0.0899
     11 C         143.8044  139.5761  159.8684 C.3     1  UNL1        0.1187
     12 C         143.5319  140.8489  160.6139 C.ar    1  UNL1        0.0768
     13 C         142.5367  141.8344  160.0767 C.ar    1  UNL1        0.0194
     14 C         142.2642  143.1072  160.8222 C.ar    1  UNL1        0.0411
     15 C         142.9869  143.3946  162.1048 C.ar    1  UNL1        0.1708
     16 C         143.9821  142.4092  162.6420 C.ar    1  UNL1        0.1682
     17 N         144.2546  141.1363  161.8965 N.ar    1  UNL1       -0.2304
     18 N         144.7048  142.6965  163.9246 N.am    1  UNL1       -0.2639
     19 C         144.4323  143.9693  164.6700 C.2     1  UNL1        0.2718
     20 O         145.1550  144.2567  165.9527 O.2     1  UNL1       -0.2707
     21 C         143.4371  144.9547  164.1329 C.3     1  UNL1        0.2898
     22 O         142.7144  144.6674  162.8503 O.3     1  UNL1       -0.4628
     23 H         145.3579  142.0497  164.2772 H       1  UNL1        0.1565
     24 C         139.1984  137.5491  164.5508 C.3     1  UNL1        0.0320
     25 C         138.5849  138.7119  165.2731 C.3     1  UNL1        0.0327
     26 C         142.2201  139.9803  167.6026 C.ar    1  UNL1        0.2250
     27 C         142.7842  141.3583  167.4208 C.ar    1  UNL1        0.0593
     28 C         142.1365  142.3134  166.4625 C.ar    1  UNL1        0.0254
     29 C         140.9248  141.8906  165.6860 C.ar    1  UNL1        0.0990
     30 N         140.2772  142.8458  164.7278 N.ar    1  UNL1       -0.2400
     31 C         139.0655  142.4230  163.9513 C.ar    1  UNL1        0.1281
     32 C         138.5014  141.0450  164.1330 C.ar    1  UNL1        0.1566
     33 F         137.2897  140.6222  163.3565 F       1  UNL1       -0.2028
     34 C         139.1490  140.0898  165.0913 C.ar    1  UNL1        0.0261
     35 C         140.3608  140.5127  165.8678 C.ar    1  UNL1        0.1002
     36 N         141.0084  139.5576  166.8261 N.ar    1  UNL1       -0.2104
     37 C         142.4626  139.0216  170.0050 C.3     1  UNL1        0.2542
     38 O         142.8677  139.0252  168.5608 O.3     1  UNL1       -0.4561
@<TRIPOS>BOND
     1    37    38    1
     2    38    26    1
     3    26    27   ar
     4    27    28   ar
     5    28    29   ar
     6    29    30   ar
     7    30    31   ar
     8    31    32   ar
     9    32    33    1
    10    32    34   ar
    11    34    25    1
    12    25    24    1
    13    24     1    1
    14     1     2    1
    15     2     3    1
    16     3     4    1
    17     4     9    1
    18     9    10    1
    19     9    11    1
    20    11    12    1
    21    12    13   ar
    22    13    14   ar
    23    14    15   ar
    24    15    16   ar
    25    16    17   ar
    26    16    18    1
    27    18    19   am
    28    19    20    2
    29    19    21    1
    30    21    22    1
    31     4     5    1
    32     5     6    1
    33     4     7    1
    34     7     8    1
    35    34    35   ar
    36    35    36   ar
    37    36    26   ar
    38    35    29   ar
    39     6     1    1
    40     8     1    1
    41    17    12   ar
    42    22    15    1
    43    18    23    1
@<TRIPOS>MOLECULE
*****
 38 43 0 0 0
SMALL
GASTEIGER

@<TRIPOS>ATOM
      1 C         143.9930  142.8214  161.8592 C.3     1  UNL1        0.0932
      2 C         142.7215  142.6180  161.0899 C.3     1  UNL1        0.0286
      3 C         142.3027  141.2357  160.6851 C.3     1  UNL1        0.0196
      4 C         143.1554  140.0567  161.0497 C.3     1  UNL1        0.0732
      5 C         144.4269  140.2601  161.8191 C.3     1  UNL1        0.0196
      6 C         144.8457  141.6425  162.2238 C.3     1  UNL1        0.0286
      7 C         143.4261  140.7951  161.2935 C.3     1  UNL1        0.1564
      8 O         143.8048  142.0451  161.6595 O.3     1  UNL1       -0.3571
      9 N         142.7367  138.6744  160.6450 N.3     1  UNL1       -0.2666
     10 C         142.6933  138.2987  159.1934 C.3     1  UNL1        0.0899
     11 C         142.3612  137.6679  161.6918 C.3     1  UNL1        0.1187
     12 C         141.2644  137.9746  162.6681 C.ar    1  UNL1        0.0768
     13 C         139.8313  137.7743  162.2732 C.ar    1  UNL1        0.0194
     14 C         138.7345  138.0809  163.2494 C.ar    1  UNL1        0.0411
     15 C         139.0709  138.5879  164.6205 C.ar    1  UNL1        0.1708
     16 C         140.5040  138.7882  165.0154 C.ar    1  UNL1        0.1682
     17 N         141.6008  138.4815  164.0391 N.ar    1  UNL1       -0.2304
     18 N         140.8404  139.2952  166.3864 N.am    1  UNL1       -0.2639
     19 C         139.7437  139.6018  167.3626 C.2     1  UNL1        0.2718
     20 O         140.0801  140.1088  168.7337 O.2     1  UNL1       -0.2707
     21 C         138.3105  139.4015  166.9678 C.3     1  UNL1        0.2898
     22 O         137.9741  138.8946  165.5967 O.3     1  UNL1       -0.4628
     23 H         141.7811  139.4266  166.6456 H       1  UNL1        0.1565
     24 C         144.4117  144.2037  162.2640 C.3     1  UNL1        0.0320
     25 C         143.8899  144.8032  163.5362 C.3     1  UNL1        0.0327
     26 C         139.3948  144.6501  163.3917 C.ar    1  UNL1        0.2250
     27 C         138.6417  143.7972  164.3690 C.ar    1  UNL1        0.0593
     28 C         139.3868  142.9952  165.3944 C.ar    1  UNL1        0.0254
     29 C         140.8851  143.0462  165.4426 C.ar    1  UNL1        0.0990
     30 N         141.6303  142.2443  166.4681 N.ar    1  UNL1       -0.2400
     31 C         143.1286  142.2953  166.5163 C.ar    1  UNL1        0.1281
     32 C         143.8819  143.1482  165.5390 C.ar    1  UNL1        0.1566
     33 F         145.3802  143.1992  165.5871 F       1  UNL1       -0.2028
     34 C         143.1367  143.9502  164.5135 C.ar    1  UNL1        0.0261
     35 C         141.6383  143.8992  164.4653 C.ar    1  UNL1        0.1002
     36 N         140.8932  144.7011  163.4399 N.ar    1  UNL1       -0.2104
     37 C         139.4008  146.3323  161.4117 C.3     1  UNL1        0.2542
     38 O         138.6497  145.4521  162.3662 O.3     1  UNL1       -0.4561
@<TRIPOS>BOND
     1    37    38    1
     2    38    26    1
     3    26    27   ar
     4    27    28   ar
     5    28    29   ar
     6    29    30   ar
     7    30    31   ar
     8    31    32   ar
     9    32    33    1
    10    32    34   ar
    11    34    25    1
    12    25    24    1
    13    24     1    1
    14     1     2    1
    15     2     3    1
    16     3     4    1
    17     4     9    1
    18     9    10    1
    19     9    11    1
    20    11    12    1
    21    12    13   ar
    22    13    14   ar
    23    14    15   ar
    24    15    16   ar
    25    16    17   ar
    26    16    18    1
    27    18    19   am
    28    19    20    2
    29    19    21    1
    30    21    22    1
    31     4     5    1
    32     5     6    1
    33     4     7    1
    34     7     8    1
    35    34    35   ar
    36    35    36   ar
    37    36    26   ar
    38    35    29   ar
    39     6     1    1
    40     8     1    1
    41    17    12   ar
    42    22    15    1
    43    18    23    1
@<TRIPOS>MOLECULE
*****
 38 43 0 0 0
SMALL
GASTEIGER

@<TRIPOS>ATOM
      1 C         143.2556  139.7225  164.7311 C.3     1  UNL1        0.0932
      2 C         142.5059  138.7351  163.8868 C.3     1  UNL1        0.0286
      3 C         141.0095  138.6659  163.9641 C.3     1  UNL1        0.0196
      4 C         140.2628  139.5841  164.8858 C.3     1  UNL1        0.0732
      5 C         141.0126  140.5715  165.7301 C.3     1  UNL1        0.0196
      6 C         142.5090  140.6407  165.6528 C.3     1  UNL1        0.0286
      7 C         141.0827  139.6590  164.8777 C.3     1  UNL1        0.1564
      8 O         142.4358  139.7216  164.8078 O.3     1  UNL1       -0.3571
      9 N         138.7664  139.5149  164.9631 N.3     1  UNL1       -0.2666
     10 C         138.1078  138.6904  166.0292 C.3     1  UNL1        0.0899
     11 C         137.9287  140.2701  163.9743 C.3     1  UNL1        0.1187
     12 C         138.2634  141.6936  163.6402 C.ar    1  UNL1        0.0768
     13 C         138.1039  142.7650  164.6779 C.ar    1  UNL1        0.0194
     14 C         138.4386  144.1885  164.3438 C.ar    1  UNL1        0.0411
     15 C         138.9328  144.5407  162.9720 C.ar    1  UNL1        0.1708
     16 C         139.0923  143.4693  161.9343 C.ar    1  UNL1        0.1682
     17 N         138.7575  142.0458  162.2684 N.ar    1  UNL1       -0.2304
     18 N         139.5864  143.8215  160.5625 N.am    1  UNL1       -0.2639
     19 C         139.9211  145.2450  160.2285 C.2     1  UNL1        0.2718
     20 O         140.4153  145.5972  158.8567 O.2     1  UNL1       -0.2707
     21 C         139.7616  146.3163  161.2662 C.3     1  UNL1        0.2898
     22 O         139.2675  145.9642  162.6380 O.3     1  UNL1       -0.4628
     23 H         139.6911  143.1183  159.8815 H       1  UNL1        0.1565
     24 C         144.7520  139.7918  164.6538 C.3     1  UNL1        0.0320
     25 C         145.4104  140.6546  163.6184 C.3     1  UNL1        0.0327
     26 C         143.5310  140.2284  159.5520 C.ar    1  UNL1        0.2250
     27 C         142.7818  141.3788  158.9477 C.ar    1  UNL1        0.0593
     28 C         142.6590  142.6713  159.6989 C.ar    1  UNL1        0.0254
     29 C         143.2855  142.8134  161.0544 C.ar    1  UNL1        0.0990
     30 N         143.1628  144.1060  161.8056 N.ar    1  UNL1       -0.2400
     31 C         143.7892  144.2481  163.1610 C.ar    1  UNL1        0.1281
     32 C         144.5385  143.0976  163.7653 C.ar    1  UNL1        0.1566
     33 F         145.1650  143.2397  165.1208 F       1  UNL1       -0.2028
     34 C         144.6612  141.8051  163.0141 C.ar    1  UNL1        0.0261
     35 C         144.0347  141.6630  161.6586 C.ar    1  UNL1        0.1002
     36 N         144.1574  140.3705  160.9074 N.ar    1  UNL1       -0.2104
     37 C         142.9775  138.7737  157.4717 C.3     1  UNL1        0.2542
     38 O         143.6537  138.9358  158.8008 O.3     1  UNL1       -0.4561
@<TRIPOS>BOND
     1    37    38    1
     2    38    26    1
     3    26    27   ar
     4    27    28   ar
     5    28    29   ar
     6    29    30   ar
     7    30    31   ar
     8    31    32   ar
     9    32    33    1
    10    32    34   ar
    11    34    25    1
    12    25    24    1
    13    24     1    1
    14     1     2    1
    15     2     3    1
    16     3     4    1
    17     4     9    1
    18     9    10    1
    19     9    11    1
    20    11    12    1
    21    12    13   ar
    22    13    14   ar
    23    14    15   ar
    24    15    16   ar
    25    16    17   ar
    26    16    18    1
    27    18    19   am
    28    19    20    2
    29    19    21    1
    30    21    22    1
    31     4     5    1
    32     5     6    1
    33     4     7    1
    34     7     8    1
    35    34    35   ar
    36    35    36   ar
    37    36    26   ar
    38    35    29   ar
    39     6     1    1
    40     8     1    1
    41    17    12   ar
    42    22    15    1
    43    18    23    1
