@<TRIPOS>MOLECULE
*****
 25 27 0 0 0
SMALL
GASTEIGER

@<TRIPOS>ATOM
      1 N         138.0205  140.3128  162.9142 N.ar    1  UNL1       -0.3165
      2 C         137.8908  139.1018  162.0386 C.ar    1  UNL1        0.0779
      3 C         138.8563  138.0662  162.5340 C.ar    1  UNL1        0.0392
      4 C         139.5826  138.6371  163.7157 C.ar    1  UNL1        0.0985
      5 N         140.6476  138.0721  164.6081 N.ar    1  UNL1       -0.2423
      6 C         141.1961  138.8956  165.7355 C.ar    1  UNL1        0.1004
      7 C         140.6795  140.2841  165.9705 C.ar    1  UNL1        0.0382
      8 C         139.6145  140.8491  165.0781 C.ar    1  UNL1        0.0218
      9 C         139.0661  140.0256  163.9507 C.ar    1  UNL1        0.0783
     10 C         141.2280  141.1076  167.0980 C.ar    1  UNL1        0.0827
     11 C         142.7027  141.3659  167.1897 C.ar    1  UNL1        0.0192
     12 C         143.2512  142.1894  168.3172 C.ar    1  UNL1        0.0030
     13 C         142.3249  142.7545  169.3529 C.ar    1  UNL1        0.0231
     14 C         140.8501  142.4961  169.2611 C.ar    1  UNL1        0.1526
     15 N         140.3017  141.6727  168.1337 N.ar    1  UNL1       -0.2413
     16 C         139.9239  143.0612  170.2968 C.3     1  UNL1        0.4348
     17 F         138.9976  143.6263  171.3324 F       1  UNL1       -0.1644
     18 F         139.2356  141.7329  170.4060 F       1  UNL1       -0.1644
     19 F         140.6121  144.3895  170.1875 F       1  UNL1       -0.1644
     20 C         137.2414  141.5872  162.7773 C.3     1  UNL1        0.1920
     21 C         138.8906  145.1894  162.5435 C.3     1  UNL1        0.1150
     22 N         138.2332  143.9656  163.1092 N.am    1  UNL1       -0.2744
     23 C         137.9101  143.8961  164.5723 C.3     1  UNL1        0.1150
     24 C         137.8988  142.8112  162.2117 C.2     1  UNL1        0.2488
     25 O         138.2219  142.8807  160.7485 O.2     1  UNL1       -0.2728
@<TRIPOS>BOND
     1    21    22    1
     2    22    23    1
     3    22    24   am
     4    24    25    2
     5    24    20    1
     6    20     1    1
     7     1     2   ar
     8     2     3   ar
     9     3     4   ar
    10     4     5   ar
    11     5     6   ar
    12     6     7   ar
    13     7    10    1
    14    10    11   ar
    15    11    12   ar
    16    12    13   ar
    17    13    14   ar
    18    14    16    1
    19    16    17    1
    20    16    18    1
    21    16    19    1
    22    14    15   ar
    23     7     8   ar
    24     8     9   ar
    25     9     1   ar
    26     9     4   ar
    27    15    10   ar
@<TRIPOS>MOLECULE
*****
 25 27 0 0 0
SMALL
GASTEIGER

@<TRIPOS>ATOM
      1 N         137.8577  141.3867  162.7898 N.ar    1  UNL1       -0.3165
      2 C         137.5632  140.4719  161.6381 C.ar    1  UNL1        0.0779
      3 C         137.9467  139.0793  162.0426 C.ar    1  UNL1        0.0392
      4 C         138.4781  139.1334  163.4442 C.ar    1  UNL1        0.0985
      5 N         139.0051  138.0684  164.3597 N.ar    1  UNL1       -0.2423
      6 C         139.4769  138.4295  165.7369 C.ar    1  UNL1        0.1004
      7 C         139.4219  139.8555  166.1988 C.ar    1  UNL1        0.0382
      8 C         138.8950  140.9206  165.2833 C.ar    1  UNL1        0.0218
      9 C         138.4231  140.5595  163.9061 C.ar    1  UNL1        0.0783
     10 C         139.8938  140.2166  167.5761 C.ar    1  UNL1        0.0827
     11 C         139.0046  139.9776  168.7602 C.ar    1  UNL1        0.0192
     12 C         139.4765  140.3387  170.1376 C.ar    1  UNL1        0.0030
     13 C         140.8377  140.9386  170.3307 C.ar    1  UNL1        0.0231
     14 C         141.7269  141.1775  169.1465 C.ar    1  UNL1        0.1526
     15 N         141.2550  140.8165  167.7693 N.ar    1  UNL1       -0.2413
     16 C         143.0881  141.7775  169.3397 C.3     1  UNL1        0.4348
     17 F         144.4492  142.3774  169.5329 F       1  UNL1       -0.1644
     18 F         142.7134  142.9173  168.4394 F       1  UNL1       -0.1644
     19 F         143.4627  140.6377  170.2400 F       1  UNL1       -0.1644
     20 C         137.6271  142.8686  162.8200 C.3     1  UNL1        0.1920
     21 C         140.4099  145.6787  162.4889 C.3     1  UNL1        0.1150
     22 N         139.3983  144.7499  163.0921 N.am    1  UNL1       -0.2744
     23 C         139.1461  144.7735  164.5706 C.3     1  UNL1        0.1150
     24 C         138.6389  143.7975  162.2168 C.2     1  UNL1        0.2488
     25 O         138.8911  143.7739  160.7384 O.2     1  UNL1       -0.2728
@<TRIPOS>BOND
     1    21    22    1
     2    22    23    1
     3    22    24   am
     4    24    25    2
     5    24    20    1
     6    20     1    1
     7     1     2   ar
     8     2     3   ar
     9     3     4   ar
    10     4     5   ar
    11     5     6   ar
    12     6     7   ar
    13     7    10    1
    14    10    11   ar
    15    11    12   ar
    16    12    13   ar
    17    13    14   ar
    18    14    16    1
    19    16    17    1
    20    16    18    1
    21    16    19    1
    22    14    15   ar
    23     7     8   ar
    24     8     9   ar
    25     9     1   ar
    26     9     4   ar
    27    15    10   ar
@<TRIPOS>MOLECULE
*****
 25 27 0 0 0
SMALL
GASTEIGER

@<TRIPOS>ATOM
      1 N         141.6560  143.9937  161.2477 N.ar    1  UNL1       -0.3165
      2 C         141.1613  145.1538  160.4357 C.ar    1  UNL1        0.0779
      3 C         139.9202  145.6827  161.0913 C.ar    1  UNL1        0.0392
      4 C         139.6478  144.8494  162.3084 C.ar    1  UNL1        0.0985
      5 N         138.5615  144.9063  163.3412 N.ar    1  UNL1       -0.2423
      6 C         138.5480  143.9194  164.4707 C.ar    1  UNL1        0.1004
      7 C         139.6208  142.8755  164.5673 C.ar    1  UNL1        0.0382
      8 C         140.7072  142.8186  163.5346 C.ar    1  UNL1        0.0218
      9 C         140.7206  143.8056  162.4051 C.ar    1  UNL1        0.0783
     10 C         139.6073  141.8885  165.6969 C.ar    1  UNL1        0.0827
     11 C         140.2860  142.2219  166.9923 C.ar    1  UNL1        0.0192
     12 C         140.2725  141.2349  168.1218 C.ar    1  UNL1        0.0030
     13 C         139.5803  139.9146  167.9558 C.ar    1  UNL1        0.0231
     14 C         138.9016  139.5812  166.6603 C.ar    1  UNL1        0.1526
     15 N         138.9152  140.5682  165.5308 N.ar    1  UNL1       -0.2413
     16 C         138.2094  138.2609  166.4943 C.3     1  UNL1        0.4348
     17 F         137.5173  136.9405  166.3282 F       1  UNL1       -0.1644
     18 F         139.1783  137.8892  165.4111 F       1  UNL1       -0.1644
     19 F         137.2406  138.6326  167.5774 F       1  UNL1       -0.1644
     20 C         142.8726  143.1668  160.9539 C.3     1  UNL1        0.1920
     21 C         145.7662  141.8234  163.3145 C.3     1  UNL1        0.1150
     22 N         144.6203  141.8418  162.3468 N.am    1  UNL1       -0.2744
     23 C         144.0761  140.5536  161.8041 C.3     1  UNL1        0.1150
     24 C         144.0186  143.1484  161.9217 C.2     1  UNL1        0.2488
     25 O         144.5627  144.4366  162.4644 O.2     1  UNL1       -0.2728
@<TRIPOS>BOND
     1    21    22    1
     2    22    23    1
     3    22    24   am
     4    24    25    2
     5    24    20    1
     6    20     1    1
     7     1     2   ar
     8     2     3   ar
     9     3     4   ar
    10     4     5   ar
    11     5     6   ar
    12     6     7   ar
    13     7    10    1
    14    10    11   ar
    15    11    12   ar
    16    12    13   ar
    17    13    14   ar
    18    14    16    1
    19    16    17    1
    20    16    18    1
    21    16    19    1
    22    14    15   ar
    23     7     8   ar
    24     8     9   ar
    25     9     1   ar
    26     9     4   ar
    27    15    10   ar
@<TRIPOS>MOLECULE
*****
 25 27 0 0 0
SMALL
GASTEIGER

@<TRIPOS>ATOM
      1 N         141.2446  144.8946  163.1923 N.ar    1  UNL1       -0.3165
      2 C         140.6938  146.0493  162.4091 C.ar    1  UNL1        0.0779
      3 C         139.3893  145.6199  161.8058 C.ar    1  UNL1        0.0392
      4 C         139.1339  144.1999  162.2160 C.ar    1  UNL1        0.0985
      5 N         138.0054  143.2571  161.9201 N.ar    1  UNL1       -0.2423
      6 C         138.0236  141.8661  162.4810 C.ar    1  UNL1        0.1004
      7 C         139.1702  141.4178  163.3379 C.ar    1  UNL1        0.0382
      8 C         140.2987  142.3606  163.6339 C.ar    1  UNL1        0.0218
      9 C         140.2806  143.7516  163.0730 C.ar    1  UNL1        0.0783
     10 C         139.1883  140.0267  163.8989 C.ar    1  UNL1        0.0827
     11 C         140.0411  138.9713  163.2596 C.ar    1  UNL1        0.0192
     12 C         140.0592  137.5802  163.8205 C.ar    1  UNL1        0.0030
     13 C         139.2244  137.2446  165.0208 C.ar    1  UNL1        0.0231
     14 C         138.3716  138.3001  165.6600 C.ar    1  UNL1        0.1526
     15 N         138.3535  139.6911  165.0991 N.ar    1  UNL1       -0.2413
     16 C         137.5368  137.9645  166.8603 C.3     1  UNL1        0.4348
     17 F         136.7020  137.6290  168.0605 F       1  UNL1       -0.1644
     18 F         137.6422  136.5061  166.5258 F       1  UNL1       -0.1644
     19 F         137.4314  139.4230  167.1948 F       1  UNL1       -0.1644
     20 C         142.5332  144.8846  163.9600 C.3     1  UNL1        0.1920
     21 C         145.3197  142.0612  163.8409 C.3     1  UNL1        0.1150
     22 N         144.1697  142.8984  164.3168 N.am    1  UNL1       -0.2744
     23 C         143.5060  142.5867  165.6254 C.3     1  UNL1        0.1150
     24 C         143.6833  144.0473  163.4841 C.2     1  UNL1        0.2488
     25 O         144.3470  144.3590  162.1755 O.2     1  UNL1       -0.2728
@<TRIPOS>BOND
     1    21    22    1
     2    22    23    1
     3    22    24   am
     4    24    25    2
     5    24    20    1
     6    20     1    1
     7     1     2   ar
     8     2     3   ar
     9     3     4   ar
    10     4     5   ar
    11     5     6   ar
    12     6     7   ar
    13     7    10    1
    14    10    11   ar
    15    11    12   ar
    16    12    13   ar
    17    13    14   ar
    18    14    16    1
    19    16    17    1
    20    16    18    1
    21    16    19    1
    22    14    15   ar
    23     7     8   ar
    24     8     9   ar
    25     9     1   ar
    26     9     4   ar
    27    15    10   ar
@<TRIPOS>MOLECULE
*****
 25 27 0 0 0
SMALL
GASTEIGER

@<TRIPOS>ATOM
      1 N         141.4483  144.2028  161.6593 N.ar    1  UNL1       -0.3165
      2 C         140.7004  145.2885  160.9438 C.ar    1  UNL1        0.0779
      3 C         139.5952  145.7594  161.8419 C.ar    1  UNL1        0.0392
      4 C         139.6600  144.9647  163.1125 C.ar    1  UNL1        0.0985
      5 N         138.8241  144.9929  164.3577 N.ar    1  UNL1       -0.2423
      6 C         139.1336  144.0590  165.4899 C.ar    1  UNL1        0.1004
      7 C         140.2789  143.0970  165.3770 C.ar    1  UNL1        0.0382
      8 C         141.1148  143.0688  164.1319 C.ar    1  UNL1        0.0218
      9 C         140.8053  144.0027  162.9996 C.ar    1  UNL1        0.0783
     10 C         140.5883  142.1631  166.5094 C.ar    1  UNL1        0.0827
     11 C         139.7023  140.9811  166.7702 C.ar    1  UNL1        0.0192
     12 C         140.0117  140.0472  167.9026 C.ar    1  UNL1        0.0030
     13 C         141.2072  140.2953  168.7740 C.ar    1  UNL1        0.0231
     14 C         142.0932  141.4773  168.5131 C.ar    1  UNL1        0.1526
     15 N         141.7837  142.4111  167.3808 N.ar    1  UNL1       -0.2413
     16 C         143.2886  141.7253  169.3846 C.3     1  UNL1        0.4348
     17 F         144.4840  141.9734  170.2560 F       1  UNL1       -0.1644
     18 F         142.7114  140.8218  170.4336 F       1  UNL1       -0.1644
     19 F         143.8658  142.6289  168.3355 F       1  UNL1       -0.1644
     20 C         142.6315  143.4495  161.1277 C.3     1  UNL1        0.1920
     21 C         145.6241  141.8192  163.1617 C.3     1  UNL1        0.1150
     22 N         144.3845  141.9538  162.3279 N.am    1  UNL1       -0.2744
     23 C         143.6582  140.7275  161.8603 C.3     1  UNL1        0.1150
     24 C         143.8712  143.3148  161.9616 C.2     1  UNL1        0.2488
     25 O         144.5975  144.5412  162.4291 O.2     1  UNL1       -0.2728
@<TRIPOS>BOND
     1    21    22    1
     2    22    23    1
     3    22    24   am
     4    24    25    2
     5    24    20    1
     6    20     1    1
     7     1     2   ar
     8     2     3   ar
     9     3     4   ar
    10     4     5   ar
    11     5     6   ar
    12     6     7   ar
    13     7    10    1
    14    10    11   ar
    15    11    12   ar
    16    12    13   ar
    17    13    14   ar
    18    14    16    1
    19    16    17    1
    20    16    18    1
    21    16    19    1
    22    14    15   ar
    23     7     8   ar
    24     8     9   ar
    25     9     1   ar
    26     9     4   ar
    27    15    10   ar
@<TRIPOS>MOLECULE
*****
 25 27 0 0 0
SMALL
GASTEIGER

@<TRIPOS>ATOM
      1 N         141.9261  138.4141  162.6952 N.ar    1  UNL1       -0.3165
      2 C         141.0991  137.9309  161.5409 C.ar    1  UNL1        0.0779
      3 C         139.6577  137.9722  161.9540 C.ar    1  UNL1        0.0392
      4 C         139.5939  138.4809  163.3637 C.ar    1  UNL1        0.0985
      5 N         138.4404  138.7307  164.2894 N.ar    1  UNL1       -0.2423
      6 C         138.6888  139.2537  165.6731 C.ar    1  UNL1        0.1004
      7 C         140.0908  139.5268  166.1311 C.ar    1  UNL1        0.0382
      8 C         141.2444  139.2770  165.2055 C.ar    1  UNL1        0.0218
      9 C         140.9959  138.7540  163.8218 C.ar    1  UNL1        0.0783
     10 C         140.3393  140.0498  167.5150 C.ar    1  UNL1        0.0827
     11 C         139.2444  140.0101  168.5395 C.ar    1  UNL1        0.0192
     12 C         139.4928  140.5331  169.9233 C.ar    1  UNL1        0.0030
     13 C         140.8361  141.0957  170.2825 C.ar    1  UNL1        0.0231
     14 C         141.9310  141.1353  169.2579 C.ar    1  UNL1        0.1526
     15 N         141.6826  140.6124  167.8742 N.ar    1  UNL1       -0.2413
     16 C         143.2743  141.6980  169.6171 C.3     1  UNL1        0.4348
     17 F         144.6176  142.2606  169.9763 F       1  UNL1       -0.1644
     18 F         143.0189  142.8769  168.7256 F       1  UNL1       -0.1644
     19 F         143.5297  140.5190  170.5086 F       1  UNL1       -0.1644
     20 C         143.4210  138.5360  162.7188 C.3     1  UNL1        0.1920
     21 C         145.3454  141.9954  162.4368 C.3     1  UNL1        0.1150
     22 N         144.6821  140.7865  163.0273 N.am    1  UNL1       -0.2744
     23 C         144.6165  140.6191  164.5164 C.3     1  UNL1        0.1150
     24 C         144.0843  139.7450  162.1284 C.2     1  UNL1        0.2488
     25 O         144.1499  139.9124  160.6392 O.2     1  UNL1       -0.2728
@<TRIPOS>BOND
     1    21    22    1
     2    22    23    1
     3    22    24   am
     4    24    25    2
     5    24    20    1
     6    20     1    1
     7     1     2   ar
     8     2     3   ar
     9     3     4   ar
    10     4     5   ar
    11     5     6   ar
    12     6     7   ar
    13     7    10    1
    14    10    11   ar
    15    11    12   ar
    16    12    13   ar
    17    13    14   ar
    18    14    16    1
    19    16    17    1
    20    16    18    1
    21    16    19    1
    22    14    15   ar
    23     7     8   ar
    24     8     9   ar
    25     9     1   ar
    26     9     4   ar
    27    15    10   ar
@<TRIPOS>MOLECULE
*****
 25 27 0 0 0
SMALL
GASTEIGER

@<TRIPOS>ATOM
      1 N         144.2503  140.1259  163.0613 N.ar    1  UNL1       -0.3165
      2 C         144.1685  139.1919  161.8904 C.ar    1  UNL1        0.0779
      3 C         143.0153  138.2607  162.1200 C.ar    1  UNL1        0.0392
      4 C         142.3842  138.6190  163.4327 C.ar    1  UNL1        0.0985
      5 N         141.2132  138.0446  164.1735 N.ar    1  UNL1       -0.2423
      6 C         140.8055  138.6230  165.4961 C.ar    1  UNL1        0.1004
      7 C         141.5688  139.7758  166.0778 C.ar    1  UNL1        0.0382
      8 C         142.7398  140.3502  165.3371 C.ar    1  UNL1        0.0218
      9 C         143.1475  139.7718  164.0145 C.ar    1  UNL1        0.0783
     10 C         141.1610  140.3542  167.4005 C.ar    1  UNL1        0.0827
     11 C         139.8435  139.9767  168.0099 C.ar    1  UNL1        0.0192
     12 C         139.4357  140.5551  169.3326 C.ar    1  UNL1        0.0030
     13 C         140.3455  141.5109  170.0457 C.ar    1  UNL1        0.0231
     14 C         141.6631  141.8884  169.4361 C.ar    1  UNL1        0.1526
     15 N         142.0709  141.3101  168.1136 N.ar    1  UNL1       -0.2413
     16 C         142.5730  142.8443  170.1492 C.3     1  UNL1        0.4348
     17 F         143.4828  143.8002  170.8623 F       1  UNL1       -0.1644
     18 F         143.6767  141.8296  170.1011 F       1  UNL1       -0.1644
     19 F         141.4693  143.8590  170.1973 F       1  UNL1       -0.1644
     20 C         145.2578  141.2215  163.2465 C.3     1  UNL1        0.1920
     21 C         143.7802  144.8978  163.0193 C.3     1  UNL1        0.1150
     22 N         144.2309  143.5242  162.6194 N.am    1  UNL1       -0.2744
     23 C         144.1054  143.0795  161.1923 C.3     1  UNL1        0.1150
     24 C         144.8071  142.5953  163.6465 C.2     1  UNL1        0.2488
     25 O         144.9326  143.0399  165.0736 O.2     1  UNL1       -0.2728
@<TRIPOS>BOND
     1    21    22    1
     2    22    23    1
     3    22    24   am
     4    24    25    2
     5    24    20    1
     6    20     1    1
     7     1     2   ar
     8     2     3   ar
     9     3     4   ar
    10     4     5   ar
    11     5     6   ar
    12     6     7   ar
    13     7    10    1
    14    10    11   ar
    15    11    12   ar
    16    12    13   ar
    17    13    14   ar
    18    14    16    1
    19    16    17    1
    20    16    18    1
    21    16    19    1
    22    14    15   ar
    23     7     8   ar
    24     8     9   ar
    25     9     1   ar
    26     9     4   ar
    27    15    10   ar
@<TRIPOS>MOLECULE
*****
 25 27 0 0 0
SMALL
GASTEIGER

@<TRIPOS>ATOM
      1 N         142.0051  138.6018  162.4966 N.ar    1  UNL1       -0.3165
      2 C         140.9841  137.9166  161.6374 C.ar    1  UNL1        0.0779
      3 C         139.6459  138.0679  162.2979 C.ar    1  UNL1        0.0392
      4 C         139.8398  138.8466  163.5652 C.ar    1  UNL1        0.0985
      5 N         138.8770  139.2978  164.6232 N.ar    1  UNL1       -0.2423
      6 C         139.3724  140.0790  165.8040 C.ar    1  UNL1        0.1004
      7 C         140.8305  140.4089  165.9268 C.ar    1  UNL1        0.0382
      8 C         141.7932  139.9577  164.8688 C.ar    1  UNL1        0.0218
      9 C         141.2979  139.1766  163.6880 C.ar    1  UNL1        0.0783
     10 C         141.3258  141.1902  167.1077 C.ar    1  UNL1        0.0827
     11 C         142.7935  141.4531  167.2708 C.ar    1  UNL1        0.0192
     12 C         143.2888  142.2344  168.4517 C.ar    1  UNL1        0.0030
     13 C         142.3164  142.7526  169.4695 C.ar    1  UNL1        0.0231
     14 C         140.8486  142.4896  169.3063 C.ar    1  UNL1        0.1526
     15 N         140.3533  141.7084  168.1255 N.ar    1  UNL1       -0.2413
     16 C         139.8761  143.0078  170.3241 C.3     1  UNL1        0.4348
     17 F         138.9037  143.5260  171.3418 F       1  UNL1       -0.1644
     18 F         139.2387  141.6524  170.4051 F       1  UNL1       -0.1644
     19 F         140.5135  144.3632  170.2430 F       1  UNL1       -0.1644
     20 C         143.4752  138.6957  162.2139 C.3     1  UNL1        0.1920
     21 C         145.7357  141.7159  163.4465 C.3     1  UNL1        0.1150
     22 N         145.0484  140.3831  163.4089 N.am    1  UNL1       -0.2744
     23 C         145.2470  139.4050  164.5287 C.3     1  UNL1        0.1150
     24 C         144.1626  140.0285  162.2516 C.2     1  UNL1        0.2488
     25 O         143.9640  141.0067  161.1318 O.2     1  UNL1       -0.2728
@<TRIPOS>BOND
     1    21    22    1
     2    22    23    1
     3    22    24   am
     4    24    25    2
     5    24    20    1
     6    20     1    1
     7     1     2   ar
     8     2     3   ar
     9     3     4   ar
    10     4     5   ar
    11     5     6   ar
    12     6     7   ar
    13     7    10    1
    14    10    11   ar
    15    11    12   ar
    16    12    13   ar
    17    13    14   ar
    18    14    16    1
    19    16    17    1
    20    16    18    1
    21    16    19    1
    22    14    15   ar
    23     7     8   ar
    24     8     9   ar
    25     9     1   ar
    26     9     4   ar
    27    15    10   ar
@<TRIPOS>MOLECULE
*****
 25 27 0 0 0
SMALL
GASTEIGER

@<TRIPOS>ATOM
      1 N         143.3050  139.4450  162.6212 N.ar    1  UNL1       -0.3165
      2 C         143.8684  140.0209  161.3559 C.ar    1  UNL1        0.0779
      3 C         144.2265  141.4537  161.6181 C.ar    1  UNL1        0.0392
      4 C         143.8845  141.7634  163.0454 C.ar    1  UNL1        0.0985
      5 N         144.0182  143.0153  163.8607 N.ar    1  UNL1       -0.2423
      6 C         143.5823  143.0258  165.2958 C.ar    1  UNL1        0.1004
      7 C         143.0128  141.7843  165.9158 C.ar    1  UNL1        0.0382
      8 C         142.8791  140.5323  165.1006 C.ar    1  UNL1        0.0218
      9 C         143.3150  140.5219  163.6654 C.ar    1  UNL1        0.0783
     10 C         142.5769  141.7948  167.3511 C.ar    1  UNL1        0.0827
     11 C         143.4924  142.3357  168.4090 C.ar    1  UNL1        0.0192
     12 C         143.0565  142.3462  169.8443 C.ar    1  UNL1        0.0030
     13 C         141.7050  141.8159  170.2216 C.ar    1  UNL1        0.0231
     14 C         140.7895  141.2750  169.1635 C.ar    1  UNL1        0.1526
     15 N         141.2254  141.2645  167.7284 N.ar    1  UNL1       -0.2413
     16 C         139.4380  140.7447  169.5408 C.3     1  UNL1        0.4348
     17 F         138.0866  140.2143  169.9181 F       1  UNL1       -0.1644
     18 F         139.6771  139.5314  168.6918 F       1  UNL1       -0.1644
     19 F         139.1989  141.9579  170.3898 F       1  UNL1       -0.1644
     20 C         142.8173  138.0390  162.8093 C.3     1  UNL1        0.1920
     21 C         138.8678  137.6861  162.9733 C.3     1  UNL1        0.1150
     22 N         140.2475  137.9364  162.4407 N.am    1  UNL1       -0.2744
     23 C         140.4373  138.3343  161.0070 C.3     1  UNL1        0.1150
     24 C         141.4375  137.7887  163.3419 C.2     1  UNL1        0.2488
     25 O         141.2477  137.3908  164.7757 O.2     1  UNL1       -0.2728
@<TRIPOS>BOND
     1    21    22    1
     2    22    23    1
     3    22    24   am
     4    24    25    2
     5    24    20    1
     6    20     1    1
     7     1     2   ar
     8     2     3   ar
     9     3     4   ar
    10     4     5   ar
    11     5     6   ar
    12     6     7   ar
    13     7    10    1
    14    10    11   ar
    15    11    12   ar
    16    12    13   ar
    17    13    14   ar
    18    14    16    1
    19    16    17    1
    20    16    18    1
    21    16    19    1
    22    14    15   ar
    23     7     8   ar
    24     8     9   ar
    25     9     1   ar
    26     9     4   ar
    27    15    10   ar
