@<TRIPOS>MOLECULE
*****
 26 29 0 0 0
SMALL
GASTEIGER

@<TRIPOS>ATOM
      1 C         139.9142  138.7936  165.5410 C.3     1  UNL1        0.0414
      2 C         138.6027  138.0716  165.6347 C.3     1  UNL1        0.0377
      3 C         137.7379  138.2419  166.8484 C.3     1  UNL1        0.1423
      4 O         138.1846  139.1341  167.9684 O.3     1  UNL1       -0.3585
      5 C         139.4961  139.8560  167.8747 C.3     1  UNL1        0.0931
      6 C         140.7751  140.6382  167.9224 C.3     1  UNL1        0.0272
      7 C         140.8116  141.3883  169.2209 C.3     1  UNL1        0.0025
      8 C         139.5551  141.0697  169.9757 C.3     1  UNL1        0.0025
      9 C         138.7420  140.1227  169.1437 C.3     1  UNL1        0.0272
     10 C         140.3609  139.6858  166.6610 C.3     1  UNL1        0.0329
     11 C         143.8592  140.1993  163.8944 C.ar    1  UNL1        0.0207
     12 C         143.8069  139.0023  164.7969 C.ar    1  UNL1        0.0028
     13 C         142.4919  138.5337  165.3457 C.ar    1  UNL1        0.0147
     14 C         141.2292  139.2622  164.9921 C.ar    1  UNL1        0.0585
     15 N         141.2816  140.4592  164.0898 N.ar    1  UNL1       -0.2482
     16 C         142.5966  140.9278  163.5409 C.ar    1  UNL1        0.0984
     17 C         139.9243  138.0641  164.2304 C.3     1  UNL1        0.0228
     18 C         138.7925  138.2449  163.2627 C.3     1  UNL1        0.0692
     19 N         138.7977  139.4040  162.3106 N.3     1  UNL1       -0.2933
     20 H         138.8268  139.0118  161.3694 H       1  UNL1        0.1236
     21 C         137.6734  140.3967  162.3314 C.3     1  UNL1        0.1022
     22 C         137.8565  141.7231  163.0077 C.ar    1  UNL1        0.0232
     23 C         137.9936  141.9484  164.4843 C.ar    1  UNL1        0.0041
     24 C         138.1564  143.4215  164.7153 C.ar    1  UNL1        0.0072
     25 C         138.1199  144.1066  163.3814 C.ar    1  UNL1        0.0352
     26 S         137.9345  143.0570  162.3261 S.2     1  UNL1       -0.0894
@<TRIPOS>BOND
     1    11    12   ar
     2    12    13   ar
     3    13    14   ar
     4    14     1    1
     5     1    17    1
     6    17    18    1
     7    18    19    1
     8    19    21    1
     9    21    22    1
    10    22    23   ar
    11    23    24   ar
    12    24    25   ar
    13    25    26   ar
    14     1     2    1
    15     2     3    1
    16     3     4    1
    17     4     5    1
    18     5     6    1
    19     6     7    1
    20     7     8    1
    21     8     9    1
    22     5    10    1
    23    14    15   ar
    24    15    16   ar
    25    16    11   ar
    26    10     1    1
    27    26    22   ar
    28     9     5    1
    29    19    20    1
@<TRIPOS>MOLECULE
*****
 26 29 0 0 0
SMALL
GASTEIGER

@<TRIPOS>ATOM
      1 C         140.9108  140.8134  166.2337 C.3     1  UNL1        0.0414
      2 C         141.4644  139.8308  167.2226 C.3     1  UNL1        0.0377
      3 C         142.7894  139.1756  166.9675 C.3     1  UNL1        0.1423
      4 O         143.5608  139.5031  165.7234 O.3     1  UNL1       -0.3585
      5 C         143.0072  140.4857  164.7345 C.3     1  UNL1        0.0931
      6 C         142.5832  141.4432  163.6605 C.3     1  UNL1        0.0272
      7 C         143.6521  141.4624  162.6083 C.3     1  UNL1        0.0025
      8 C         144.7367  140.5168  163.0320 C.3     1  UNL1        0.0025
      9 C         144.3382  139.9132  164.3461 C.3     1  UNL1        0.0272
     10 C         141.6822  141.1409  164.9896 C.3     1  UNL1        0.0329
     11 C         138.1082  143.7776  164.3339 C.ar    1  UNL1        0.0207
     12 C         139.1170  144.2397  165.3434 C.ar    1  UNL1        0.0028
     13 C         140.0511  143.2516  165.9766 C.ar    1  UNL1        0.0147
     14 C         139.9765  141.8015  165.6004 C.ar    1  UNL1        0.0585
     15 N         138.9678  141.3395  164.5910 N.ar    1  UNL1       -0.2482
     16 C         138.0336  142.3276  163.9578 C.ar    1  UNL1        0.0984
     17 C         139.8149  140.8291  167.2577 C.3     1  UNL1        0.0228
     18 C         139.0323  139.5804  167.5379 C.3     1  UNL1        0.0692
     19 N         138.1097  139.0235  166.4944 N.3     1  UNL1       -0.2933
     20 H         138.0434  139.7240  165.7559 H       1  UNL1        0.1236
     21 C         138.4326  137.7197  165.8268 C.3     1  UNL1        0.1022
     22 C         139.3237  137.6952  164.6205 C.ar    1  UNL1        0.0232
     23 C         140.7874  137.3673  164.6121 C.ar    1  UNL1        0.0041
     24 C         141.2760  137.4638  163.1972 C.ar    1  UNL1        0.0072
     25 C         140.1142  137.8512  162.3311 C.ar    1  UNL1        0.0352
     26 S         138.9077  137.9943  163.2107 S.2     1  UNL1       -0.0894
@<TRIPOS>BOND
     1    11    12   ar
     2    12    13   ar
     3    13    14   ar
     4    14     1    1
     5     1    17    1
     6    17    18    1
     7    18    19    1
     8    19    21    1
     9    21    22    1
    10    22    23   ar
    11    23    24   ar
    12    24    25   ar
    13    25    26   ar
    14     1     2    1
    15     2     3    1
    16     3     4    1
    17     4     5    1
    18     5     6    1
    19     6     7    1
    20     7     8    1
    21     8     9    1
    22     5    10    1
    23    14    15   ar
    24    15    16   ar
    25    16    11   ar
    26    10     1    1
    27    26    22   ar
    28     9     5    1
    29    19    20    1
@<TRIPOS>MOLECULE
*****
 26 29 0 0 0
SMALL
GASTEIGER

@<TRIPOS>ATOM
      1 C         138.9711  141.0012  165.4591 C.3     1  UNL1        0.0414
      2 C         138.1679  139.7434  165.6098 C.3     1  UNL1        0.0377
      3 C         138.2077  138.9780  166.8992 C.3     1  UNL1        0.1423
      4 O         139.0507  139.4705  168.0380 O.3     1  UNL1       -0.3585
      5 C         139.8539  140.7284  167.8874 C.3     1  UNL1        0.0931
      6 C         140.7059  141.9629  167.8841 C.3     1  UNL1        0.0272
      7 C         141.3714  142.0702  169.2241 C.3     1  UNL1        0.0025
      8 C         140.9306  140.9021  170.0555 C.3     1  UNL1        0.0025
      9 C         139.9927  140.0728  169.2294 C.3     1  UNL1        0.0272
     10 C         139.8141  141.4937  166.5979 C.3     1  UNL1        0.0329
     11 C         140.7124  144.7089  163.5960 C.ar    1  UNL1        0.0207
     12 C         139.3831  144.7707  164.2881 C.ar    1  UNL1        0.0028
     13 C         138.8027  143.5348  164.9092 C.ar    1  UNL1        0.0147
     14 C         139.5516  142.2371  164.8380 C.ar    1  UNL1        0.0585
     15 N         140.8809  142.1753  164.1459 N.ar    1  UNL1       -0.2482
     16 C         141.4613  143.4112  163.5248 C.ar    1  UNL1        0.0984
     17 C         138.3298  140.9380  164.1046 C.3     1  UNL1        0.0228
     18 C         138.5296  139.7316  163.2358 C.3     1  UNL1        0.0692
     19 N         139.8416  139.5170  162.5408 N.3     1  UNL1       -0.2933
     20 H         140.3708  140.3837  162.6366 H       1  UNL1        0.1236
     21 C         140.7486  138.4051  162.9779 C.3     1  UNL1        0.1022
     22 C         141.8259  138.6691  163.9877 C.ar    1  UNL1        0.0232
     23 C         141.6962  138.5204  165.4746 C.ar    1  UNL1        0.0041
     24 C         143.0122  138.8876  166.0938 C.ar    1  UNL1        0.0072
     25 C         143.9553  139.2632  164.9895 C.ar    1  UNL1        0.0352
     26 S         143.2222  139.1282  163.6879 S.2     1  UNL1       -0.0894
@<TRIPOS>BOND
     1    11    12   ar
     2    12    13   ar
     3    13    14   ar
     4    14     1    1
     5     1    17    1
     6    17    18    1
     7    18    19    1
     8    19    21    1
     9    21    22    1
    10    22    23   ar
    11    23    24   ar
    12    24    25   ar
    13    25    26   ar
    14     1     2    1
    15     2     3    1
    16     3     4    1
    17     4     5    1
    18     5     6    1
    19     6     7    1
    20     7     8    1
    21     8     9    1
    22     5    10    1
    23    14    15   ar
    24    15    16   ar
    25    16    11   ar
    26    10     1    1
    27    26    22   ar
    28     9     5    1
    29    19    20    1
@<TRIPOS>MOLECULE
*****
 26 29 0 0 0
SMALL
GASTEIGER

@<TRIPOS>ATOM
      1 C         142.9492  143.1192  165.0775 C.3     1  UNL1        0.0414
      2 C         143.5990  144.1956  164.2596 C.3     1  UNL1        0.0377
      3 C         142.7532  145.1725  163.4979 C.3     1  UNL1        0.1423
      4 O         141.2575  145.0730  163.5542 O.3     1  UNL1       -0.3585
      5 C         140.6077  143.9966  164.3721 C.3     1  UNL1        0.0931
      6 C         139.8201  142.9790  165.1430 C.3     1  UNL1        0.0272
      7 C         138.3628  143.2508  164.9146 C.3     1  UNL1        0.0025
      8 C         138.2496  144.4363  164.0026 C.3     1  UNL1        0.0025
      9 C         139.6371  144.8973  163.6673 C.3     1  UNL1        0.0272
     10 C         141.4535  143.0197  165.1338 C.3     1  UNL1        0.0329
     11 C         142.5044  139.5649  167.8014 C.ar    1  UNL1        0.0207
     12 C         142.7537  140.9264  168.3796 C.ar    1  UNL1        0.0028
     13 C         142.9020  142.1111  167.4716 C.ar    1  UNL1        0.0147
     14 C         142.8009  141.9343  165.9855 C.ar    1  UNL1        0.0585
     15 N         142.5516  140.5730  165.4074 N.ar    1  UNL1       -0.2482
     16 C         142.4033  139.3881  166.3154 C.ar    1  UNL1        0.0984
     17 C         144.3933  142.8072  165.3366 C.3     1  UNL1        0.0228
     18 C         145.2745  142.3475  164.2132 C.3     1  UNL1        0.0692
     19 N         145.1517  140.9477  163.6883 N.3     1  UNL1       -0.2933
     20 H         144.4725  140.4697  164.2804 H       1  UNL1        0.1236
     21 C         144.7288  140.7136  162.2683 C.3     1  UNL1        0.1022
     22 C         143.6746  141.5812  161.6470 C.ar    1  UNL1        0.0232
     23 C         142.1976  141.4856  161.8909 C.ar    1  UNL1        0.0041
     24 C         141.5224  142.5420  161.0675 C.ar    1  UNL1        0.0072
     25 C         142.5821  143.2906  160.3147 C.ar    1  UNL1        0.0352
     26 S         143.9122  142.6968  160.6729 S.2     1  UNL1       -0.0894
@<TRIPOS>BOND
     1    11    12   ar
     2    12    13   ar
     3    13    14   ar
     4    14     1    1
     5     1    17    1
     6    17    18    1
     7    18    19    1
     8    19    21    1
     9    21    22    1
    10    22    23   ar
    11    23    24   ar
    12    24    25   ar
    13    25    26   ar
    14     1     2    1
    15     2     3    1
    16     3     4    1
    17     4     5    1
    18     5     6    1
    19     6     7    1
    20     7     8    1
    21     8     9    1
    22     5    10    1
    23    14    15   ar
    24    15    16   ar
    25    16    11   ar
    26    10     1    1
    27    26    22   ar
    28     9     5    1
    29    19    20    1
@<TRIPOS>MOLECULE
*****
 26 29 0 0 0
SMALL
GASTEIGER

@<TRIPOS>ATOM
      1 C         142.5348  140.9946  164.4361 C.3     1  UNL1        0.0414
      2 C         142.5563  139.5283  164.1211 C.3     1  UNL1        0.0377
      3 C         142.6156  138.5231  165.2329 C.3     1  UNL1        0.1423
      4 O         142.6535  138.9844  166.6597 O.3     1  UNL1       -0.3585
      5 C         142.6320  140.4508  166.9747 C.3     1  UNL1        0.0931
      6 C         142.6165  141.8763  167.4412 C.3     1  UNL1        0.0272
      7 C         142.6669  141.8739  168.9403 C.3     1  UNL1        0.0025
      8 C         142.7135  140.4470  169.4004 C.3     1  UNL1        0.0025
      9 C         142.6920  139.5674  168.1855 C.3     1  UNL1        0.0272
     10 C         142.5727  141.4559  165.8629 C.3     1  UNL1        0.0329
     11 C         142.4168  145.4507  163.8201 C.ar    1  UNL1        0.0207
     12 C         143.7347  144.7375  163.8871 C.ar    1  UNL1        0.0028
     13 C         143.7740  143.2521  164.0924 C.ar    1  UNL1        0.0147
     14 C         142.4954  142.4801  164.2308 C.ar    1  UNL1        0.0585
     15 N         141.1777  143.1933  164.1638 N.ar    1  UNL1       -0.2482
     16 C         141.1383  144.6787  163.9585 C.ar    1  UNL1        0.0984
     17 C         142.4833  141.0493  162.9380 C.3     1  UNL1        0.0228
     18 C         141.3588  140.3837  162.2014 C.3     1  UNL1        0.0692
     19 N         140.0671  141.1151  161.9851 N.3     1  UNL1       -0.2933
     20 H         139.9032  141.1318  160.9785 H       1  UNL1        0.1236
     21 C         138.8050  140.6124  162.6211 C.3     1  UNL1        0.1022
     22 C         138.8593  139.9210  163.9512 C.ar    1  UNL1        0.0232
     23 C         138.9785  140.5901  165.2884 C.ar    1  UNL1        0.0041
     24 C         138.9968  139.5219  166.3413 C.ar    1  UNL1        0.0072
     25 C         138.8889  138.1926  165.6547 C.ar    1  UNL1        0.0352
     26 S         138.8039  138.4392  164.1777 S.2     1  UNL1       -0.0894
@<TRIPOS>BOND
     1    11    12   ar
     2    12    13   ar
     3    13    14   ar
     4    14     1    1
     5     1    17    1
     6    17    18    1
     7    18    19    1
     8    19    21    1
     9    21    22    1
    10    22    23   ar
    11    23    24   ar
    12    24    25   ar
    13    25    26   ar
    14     1     2    1
    15     2     3    1
    16     3     4    1
    17     4     5    1
    18     5     6    1
    19     6     7    1
    20     7     8    1
    21     8     9    1
    22     5    10    1
    23    14    15   ar
    24    15    16   ar
    25    16    11   ar
    26    10     1    1
    27    26    22   ar
    28     9     5    1
    29    19    20    1
@<TRIPOS>MOLECULE
*****
 26 29 0 0 0
SMALL
GASTEIGER

@<TRIPOS>ATOM
      1 C         139.1508  139.9122  165.1533 C.3     1  UNL1        0.0414
      2 C         138.3882  139.3358  163.9974 C.3     1  UNL1        0.0377
      3 C         137.7695  140.2461  162.9784 C.3     1  UNL1        0.1423
      4 O         137.9132  141.7329  163.1154 O.3     1  UNL1       -0.3585
      5 C         138.6758  142.3093  164.2714 C.3     1  UNL1        0.0931
      6 C         139.4055  143.0272  165.3678 C.3     1  UNL1        0.0272
      7 C         139.2958  144.5008  165.1100 C.3     1  UNL1        0.0025
      8 C         138.4983  144.6937  163.8543 C.3     1  UNL1        0.0025
      9 C         138.1151  143.3392  163.3360 C.3     1  UNL1        0.0272
     10 C         139.2946  141.3990  165.2903 C.3     1  UNL1        0.0329
     11 C         141.5818  140.1169  168.9346 C.ar    1  UNL1        0.0207
     12 C         140.0867  140.0216  169.0085 C.ar    1  UNL1        0.0028
     13 C         139.2763  139.9533  167.7481 C.ar    1  UNL1        0.0147
     14 C         139.9612  139.9804  166.4138 C.ar    1  UNL1        0.0585
     15 N         141.4562  140.0757  166.3400 N.ar    1  UNL1       -0.2482
     16 C         142.2667  140.1440  167.6005 C.ar    1  UNL1        0.0984
     17 C         139.2885  138.4491  165.4541 C.3     1  UNL1        0.0228
     18 C         139.9766  137.5438  164.4758 C.3     1  UNL1        0.0692
     19 N         141.4741  137.5318  164.3903 N.3     1  UNL1       -0.2933
     20 H         141.7728  136.5769  164.5885 H       1  UNL1        0.1236
     21 C         142.1561  137.9438  163.1194 C.3     1  UNL1        0.1022
     22 C         141.6801  139.1535  162.3710 C.ar    1  UNL1        0.0232
     23 C         141.8700  140.5811  162.7906 C.ar    1  UNL1        0.0041
     24 C         141.2379  141.4579  161.7506 C.ar    1  UNL1        0.0072
     25 C         140.6574  140.5723  160.6882 C.ar    1  UNL1        0.0352
     26 S         140.9307  139.1481  161.0717 S.2     1  UNL1       -0.0894
@<TRIPOS>BOND
     1    11    12   ar
     2    12    13   ar
     3    13    14   ar
     4    14     1    1
     5     1    17    1
     6    17    18    1
     7    18    19    1
     8    19    21    1
     9    21    22    1
    10    22    23   ar
    11    23    24   ar
    12    24    25   ar
    13    25    26   ar
    14     1     2    1
    15     2     3    1
    16     3     4    1
    17     4     5    1
    18     5     6    1
    19     6     7    1
    20     7     8    1
    21     8     9    1
    22     5    10    1
    23    14    15   ar
    24    15    16   ar
    25    16    11   ar
    26    10     1    1
    27    26    22   ar
    28     9     5    1
    29    19    20    1
@<TRIPOS>MOLECULE
*****
 26 29 0 0 0
SMALL
GASTEIGER

@<TRIPOS>ATOM
      1 C         143.5357  141.0205  164.7651 C.3     1  UNL1        0.0414
      2 C         144.1263  139.6486  164.6271 C.3     1  UNL1        0.0377
      3 C         143.9751  138.6517  165.7377 C.3     1  UNL1        0.1423
      4 O         143.2332  139.0268  166.9862 O.3     1  UNL1       -0.3585
      5 C         142.6425  140.3986  167.1242 C.3     1  UNL1        0.0931
      6 C         142.0012  141.7255  167.4038 C.3     1  UNL1        0.0272
      7 C         141.3740  141.6595  168.7648 C.3     1  UNL1        0.0025
      8 C         141.6277  140.2919  169.3263 C.3     1  UNL1        0.0025
      9 C         142.4117  139.5126  168.3124 C.3     1  UNL1        0.0272
     10 C         142.7937  141.3955  166.0137 C.3     1  UNL1        0.0329
     11 C         142.3997  145.2563  163.7565 C.ar    1  UNL1        0.0207
     12 C         143.7895  144.9442  164.2269 C.ar    1  UNL1        0.0028
     13 C         144.1681  143.5323  164.5630 C.ar    1  UNL1        0.0147
     14 C         143.1570  142.4325  164.4289 C.ar    1  UNL1        0.0585
     15 N         141.7673  142.7446  163.9586 N.ar    1  UNL1       -0.2482
     16 C         141.3886  144.1566  163.6223 C.ar    1  UNL1        0.0984
     17 C         144.1460  141.1358  163.3998 C.3     1  UNL1        0.0228
     18 C         143.6437  140.2754  162.2785 C.3     1  UNL1        0.0692
     19 N         142.3907  140.6543  161.5458 N.3     1  UNL1       -0.2933
     20 H         142.6328  140.7069  160.5563 H       1  UNL1        0.1236
     21 C         141.1710  139.7871  161.6477 C.3     1  UNL1        0.1022
     22 C         140.9338  138.9686  162.8821 C.ar    1  UNL1        0.0232
     23 C         140.3120  139.4558  164.1572 C.ar    1  UNL1        0.0041
     24 C         140.2706  138.3075  165.1212 C.ar    1  UNL1        0.0072
     25 C         140.8669  137.1104  164.4420 C.ar    1  UNL1        0.0352
     26 S         141.2768  137.5189  163.0582 S.2     1  UNL1       -0.0894
@<TRIPOS>BOND
     1    11    12   ar
     2    12    13   ar
     3    13    14   ar
     4    14     1    1
     5     1    17    1
     6    17    18    1
     7    18    19    1
     8    19    21    1
     9    21    22    1
    10    22    23   ar
    11    23    24   ar
    12    24    25   ar
    13    25    26   ar
    14     1     2    1
    15     2     3    1
    16     3     4    1
    17     4     5    1
    18     5     6    1
    19     6     7    1
    20     7     8    1
    21     8     9    1
    22     5    10    1
    23    14    15   ar
    24    15    16   ar
    25    16    11   ar
    26    10     1    1
    27    26    22   ar
    28     9     5    1
    29    19    20    1
@<TRIPOS>MOLECULE
*****
 26 29 0 0 0
SMALL
GASTEIGER

@<TRIPOS>ATOM
      1 C         139.6572  140.6764  163.1427 C.3     1  UNL1        0.0414
      2 C         140.2113  139.6811  162.1668 C.3     1  UNL1        0.0377
      3 C         140.1092  138.2124  162.4540 C.3     1  UNL1        0.1423
      4 O         139.4530  137.7390  163.7170 O.3     1  UNL1       -0.3585
      5 C         138.8989  138.7342  164.6929 C.3     1  UNL1        0.0931
      6 C         138.3021  139.6069  165.7570 C.3     1  UNL1        0.0272
      7 C         137.7587  138.7169  166.8353 C.3     1  UNL1        0.0025
      8 C         138.0197  137.2944  166.4377 C.3     1  UNL1        0.0025
      9 C         138.7244  137.3050  165.1136 C.3     1  UNL1        0.0272
     10 C         139.0010  140.2029  164.4058 C.3     1  UNL1        0.0329
     11 C         138.5444  144.6327  164.9756 C.ar    1  UNL1        0.0207
     12 C         139.6382  143.8056  165.5836 C.ar    1  UNL1        0.0028
     13 C         140.0091  142.4868  164.9726 C.ar    1  UNL1        0.0147
     14 C         139.2862  141.9952  163.7537 C.ar    1  UNL1        0.0585
     15 N         138.1926  142.8223  163.1458 N.ar    1  UNL1       -0.2482
     16 C         137.8216  144.1411  163.7567 C.ar    1  UNL1        0.0984
     17 C         140.1846  141.6078  162.0919 C.3     1  UNL1        0.0228
     18 C         141.6280  141.5439  161.6891 C.3     1  UNL1        0.0692
     19 N         142.6883  142.0656  162.6132 N.3     1  UNL1       -0.2933
     20 H         142.2060  142.5354  163.3794 H       1  UNL1        0.1236
     21 C         143.6720  141.1197  163.2359 C.3     1  UNL1        0.1022
     22 C         143.2453  140.2308  164.3663 C.ar    1  UNL1        0.0232
     23 C         143.0470  138.7458  164.2936 C.ar    1  UNL1        0.0041
     24 C         142.6212  138.2680  165.6501 C.ar    1  UNL1        0.0072
     25 C         142.5563  139.4577  166.5613 C.ar    1  UNL1        0.0352
     26 S         142.9420  140.6708  165.7678 S.2     1  UNL1       -0.0894
@<TRIPOS>BOND
     1    11    12   ar
     2    12    13   ar
     3    13    14   ar
     4    14     1    1
     5     1    17    1
     6    17    18    1
     7    18    19    1
     8    19    21    1
     9    21    22    1
    10    22    23   ar
    11    23    24   ar
    12    24    25   ar
    13    25    26   ar
    14     1     2    1
    15     2     3    1
    16     3     4    1
    17     4     5    1
    18     5     6    1
    19     6     7    1
    20     7     8    1
    21     8     9    1
    22     5    10    1
    23    14    15   ar
    24    15    16   ar
    25    16    11   ar
    26    10     1    1
    27    26    22   ar
    28     9     5    1
    29    19    20    1
@<TRIPOS>MOLECULE
*****
 26 29 0 0 0
SMALL
GASTEIGER

@<TRIPOS>ATOM
      1 C         141.3018  141.6277  166.2129 C.3     1  UNL1        0.0414
      2 C         141.3854  141.4409  164.7270 C.3     1  UNL1        0.0377
      3 C         140.4595  140.4826  164.0383 C.3     1  UNL1        0.1423
      4 O         139.4501  139.7109  164.8356 O.3     1  UNL1       -0.3585
      5 C         139.3665  139.8977  166.3216 C.3     1  UNL1        0.0931
      6 C         139.1666  139.9790  167.8059 C.3     1  UNL1        0.0272
      7 C         138.0563  139.0409  168.1762 C.3     1  UNL1        0.0025
      8 C         137.5700  138.3797  166.9206 C.3     1  UNL1        0.0025
      9 C         138.3798  138.9093  165.7744 C.3     1  UNL1        0.0272
     10 C         140.2924  140.8561  167.0102 C.3     1  UNL1        0.0329
     11 C         142.2127  143.1791  170.3377 C.ar    1  UNL1        0.0207
     12 C         140.8966  143.4954  169.6911 C.ar    1  UNL1        0.0028
     13 C         140.5930  142.9783  168.3162 C.ar    1  UNL1        0.0147
     14 C         141.6055  142.1448  167.5879 C.ar    1  UNL1        0.0585
     15 N         142.9214  141.8285  168.2345 N.ar    1  UNL1       -0.2482
     16 C         143.2250  142.3457  169.6095 C.ar    1  UNL1        0.0984
     17 C         142.4167  142.5789  165.8932 C.3     1  UNL1        0.0228
     18 C         142.3773  143.3821  164.6270 C.3     1  UNL1        0.0692
     19 N         143.6379  143.9859  164.0824 N.3     1  UNL1       -0.2933
     20 H         144.2567  144.1429  164.8779 H       1  UNL1        0.1236
     21 C         144.4379  143.2479  163.0503 C.3     1  UNL1        0.1022
     22 C         144.4900  141.7490  163.0725 C.ar    1  UNL1        0.0232
     23 C         145.0869  140.9035  164.1582 C.ar    1  UNL1        0.0041
     24 C         144.9201  139.4644  163.7697 C.ar    1  UNL1        0.0072
     25 C         144.2202  139.4204  162.4437 C.ar    1  UNL1        0.0352
     26 S         143.9544  140.8323  162.0128 S.2     1  UNL1       -0.0894
@<TRIPOS>BOND
     1    11    12   ar
     2    12    13   ar
     3    13    14   ar
     4    14     1    1
     5     1    17    1
     6    17    18    1
     7    18    19    1
     8    19    21    1
     9    21    22    1
    10    22    23   ar
    11    23    24   ar
    12    24    25   ar
    13    25    26   ar
    14     1     2    1
    15     2     3    1
    16     3     4    1
    17     4     5    1
    18     5     6    1
    19     6     7    1
    20     7     8    1
    21     8     9    1
    22     5    10    1
    23    14    15   ar
    24    15    16   ar
    25    16    11   ar
    26    10     1    1
    27    26    22   ar
    28     9     5    1
    29    19    20    1
