@<TRIPOS>MOLECULE
*****
 37 41 0 0 0
SMALL
GASTEIGER

@<TRIPOS>ATOM
      1 C         142.7889  140.4285  162.6314 C.2     1  UNL1        0.2352
      2 O         141.4639  140.8645  162.0800 O.2     1  UNL1       -0.2737
      3 N         144.0091  140.4531  161.7593 N.am    1  UNL1       -0.3011
      4 H         144.8787  140.1669  162.1213 H       1  UNL1        0.1497
      5 N         143.2642  138.7005  163.3434 N.3     1  UNL1       -0.3162
      6 C         142.8939  139.9679  164.0551 C.3     1  UNL1        0.1166
      7 C         142.4871  141.3953  164.2724 C.3     1  UNL1        0.0739
      8 C         142.3139  141.9219  165.6661 C.3     1  UNL1        0.2039
      9 N         142.5475  141.0212  166.8427 N.pl3   1  UNL1       -0.1931
     10 C         142.9543  139.5938  166.6255 C.3     1  UNL1        0.2039
     11 C         143.1275  139.0672  165.2316 C.3     1  UNL1        0.0739
     12 H         143.2379  138.8564  162.3357 H       1  UNL1        0.1192
     13 H         142.6018  137.9655  163.5912 H       1  UNL1        0.1192
     14 C         142.3743  141.5478  168.2365 C.2     1  UNL1        0.3205
     15 N         143.4408  142.4039  168.8527 N.2     1  UNL1        0.0097
     16 C         143.2677  142.9305  170.2464 C.2     1  UNL1        0.4717
     17 N         142.0279  142.6012  171.0241 N.2     1  UNL1        0.0158
     18 C         140.9614  141.7451  170.4079 C.2     1  UNL1        0.3714
     19 N         139.6416  141.2569  170.9273 N.2     1  UNL1       -0.0339
     20 C         138.9991  140.4285  169.8544 C.2     1  UNL1        0.2323
     21 C         139.9218  140.4047  168.6720 C.2     1  UNL1        0.0486
     22 C         141.1346  141.2184  169.0141 C.3     1  UNL1        0.2428
     23 C         143.9042  140.9137  160.3356 C.3     1  UNL1        0.0955
     24 C         143.5403  139.9376  159.2564 C.ar    1  UNL1       -0.0044
     25 C         143.6653  140.3324  157.8147 C.ar    1  UNL1       -0.0018
     26 C         143.3015  139.3562  156.7355 C.ar    1  UNL1        0.0111
     27 C         142.8126  137.9853  157.0980 C.ar    1  UNL1        0.0577
     28 CL        142.4487  137.0091  156.0187 Cl      1  UNL1       -0.0822
     29 C         142.6875  137.5904  158.5396 C.ar    1  UNL1        0.0111
     30 C         143.0514  138.5666  159.6189 C.ar    1  UNL1       -0.0018
     31 C         144.1631  142.3505  159.9912 C.3     1  UNL1        0.0414
     32 C         143.1158  143.3883  160.2669 C.3     1  UNL1        0.0741
     33 N         143.0458  144.0438  161.6143 N.3     1  UNL1       -0.2726
     34 C         141.8197  144.6353  162.2442 C.3     1  UNL1        0.0721
     35 C         142.2058  145.1799  163.5876 C.3     1  UNL1        0.0188
     36 C         143.6703  144.9249  163.7877 C.3     1  UNL1        0.0188
     37 C         144.1894  144.2227  162.5681 C.3     1  UNL1        0.0721
@<TRIPOS>BOND
     1     5     6    1
     2     6     1    1
     3     1     2    2
     4     1     3   am
     5     3    23    1
     6    23    31    1
     7    31    32    1
     8    32    33    1
     9    33    34    1
    10    34    35    1
    11    35    36    1
    12    36    37    1
    13    23    24    1
    14    24    25   ar
    15    25    26   ar
    16    26    27   ar
    17    27    28    1
    18    27    29   ar
    19    29    30   ar
    20     6     7    1
    21     7     8    1
    22     8     9    1
    23     9    14    1
    24    14    15    2
    25    15    16    1
    26    16    17    2
    27    17    18    1
    28    18    19    2
    29    19    20    1
    30    20    21    2
    31    21    22    1
    32     9    10    1
    33    10    11    1
    34    11     6    1
    35    37    33    1
    36    30    24   ar
    37    22    14    1
    38    22    18    1
    39     5    12    1
    40     5    13    1
    41     3     4    1
@<TRIPOS>MOLECULE
*****
 37 41 0 0 0
SMALL
GASTEIGER

@<TRIPOS>ATOM
      1 C         142.7155  140.3374  162.7531 C.2     1  UNL1        0.2352
      2 O         141.4524  140.9269  162.1992 O.2     1  UNL1       -0.2737
      3 N         143.9552  140.2926  161.9098 N.am    1  UNL1       -0.3011
      4 H         144.7843  139.9057  162.2734 H       1  UNL1        0.1497
      5 N         143.6935  138.8455  163.4856 N.3     1  UNL1       -0.3162
      6 C         142.7391  139.7925  164.1505 C.3     1  UNL1        0.1166
      7 C         141.7765  140.9288  164.3302 C.3     1  UNL1        0.0739
      8 C         141.1690  141.1914  165.6762 C.3     1  UNL1        0.2039
      9 N         141.5240  140.3176  166.8427 N.pl3   1  UNL1       -0.1931
     10 C         142.4866  139.1813  166.6630 C.3     1  UNL1        0.2039
     11 C         143.0941  138.9188  165.3169 C.3     1  UNL1        0.0739
     12 H         143.7866  139.0925  162.5003 H       1  UNL1        0.1192
     13 H         143.3379  137.8928  163.5650 H       1  UNL1        0.1192
     14 C         140.9164  140.5801  168.1887 C.2     1  UNL1        0.3205
     15 N         139.6046  139.9516  168.5550 N.2     1  UNL1        0.0097
     16 C         138.9971  140.2141  169.9010 C.2     1  UNL1        0.4717
     17 N         139.7012  141.1053  170.8809 N.2     1  UNL1        0.0158
     18 C         141.0130  141.7338  170.5146 C.2     1  UNL1        0.3714
     19 N         141.9321  142.6494  171.2675 N.2     1  UNL1       -0.0339
     20 C         143.1078  142.9527  170.3867 C.2     1  UNL1        0.2323
     21 C         142.9153  142.2246  169.0895 C.2     1  UNL1        0.0486
     22 C         141.6206  141.4713  169.1685 C.3     1  UNL1        0.2428
     23 C         143.9317  140.8375  160.5124 C.3     1  UNL1        0.0955
     24 C         143.5798  139.9400  159.3633 C.ar    1  UNL1       -0.0044
     25 C         143.0142  138.5752  159.6234 C.ar    1  UNL1       -0.0018
     26 C         142.6623  137.6777  158.4743 C.ar    1  UNL1        0.0111
     27 C         142.8760  138.1449  157.0650 C.ar    1  UNL1        0.0577
     28 CL        142.5240  137.2473  155.9158 Cl      1  UNL1       -0.0822
     29 C         143.4415  139.5096  156.8048 C.ar    1  UNL1        0.0111
     30 C         143.7934  140.4072  157.9540 C.ar    1  UNL1       -0.0018
     31 C         144.2601  142.2800  160.2643 C.3     1  UNL1        0.0414
     32 C         143.2055  143.3312  160.4454 C.3     1  UNL1        0.0741
     33 N         143.0705  144.0394  161.7608 N.3     1  UNL1       -0.2726
     34 C         144.1675  144.2597  162.7599 C.3     1  UNL1        0.0721
     35 C         143.5899  145.0081  163.9246 C.3     1  UNL1        0.0188
     36 C         142.1362  145.2502  163.6452 C.3     1  UNL1        0.0188
     37 C         141.8153  144.6515  162.3078 C.3     1  UNL1        0.0721
@<TRIPOS>BOND
     1     5     6    1
     2     6     1    1
     3     1     2    2
     4     1     3   am
     5     3    23    1
     6    23    31    1
     7    31    32    1
     8    32    33    1
     9    33    34    1
    10    34    35    1
    11    35    36    1
    12    36    37    1
    13    23    24    1
    14    24    25   ar
    15    25    26   ar
    16    26    27   ar
    17    27    28    1
    18    27    29   ar
    19    29    30   ar
    20     6     7    1
    21     7     8    1
    22     8     9    1
    23     9    14    1
    24    14    15    2
    25    15    16    1
    26    16    17    2
    27    17    18    1
    28    18    19    2
    29    19    20    1
    30    20    21    2
    31    21    22    1
    32     9    10    1
    33    10    11    1
    34    11     6    1
    35    37    33    1
    36    30    24   ar
    37    22    14    1
    38    22    18    1
    39     5    12    1
    40     5    13    1
    41     3     4    1
@<TRIPOS>MOLECULE
*****
 37 41 0 0 0
SMALL
GASTEIGER

@<TRIPOS>ATOM
      1 C         141.9284  144.2745  162.1897 C.2     1  UNL1        0.2352
      2 O         143.2214  145.0345  162.1692 O.2     1  UNL1       -0.2737
      3 N         141.4891  143.5086  160.9771 N.am    1  UNL1       -0.3011
      4 H         140.6404  143.0098  160.9906 H       1  UNL1        0.1497
      5 N         140.6446  145.5764  162.8025 N.3     1  UNL1       -0.3162
      6 C         141.0744  144.2803  163.4229 C.3     1  UNL1        0.1166
      7 C         141.8009  142.9820  163.6152 C.3     1  UNL1        0.0739
      8 C         141.5242  142.1398  164.8250 C.3     1  UNL1        0.2039
      9 N         140.5209  142.5957  165.8428 N.pl3   1  UNL1       -0.1931
     10 C         139.7945  143.8939  165.6506 C.3     1  UNL1        0.2039
     11 C         140.0713  144.7362  164.4407 C.3     1  UNL1        0.0739
     12 H         141.1516  145.7200  161.9291 H       1  UNL1        0.1192
     13 H         140.8470  146.3438  163.4432 H       1  UNL1        0.1192
     14 C         140.2442  141.7534  167.0528 C.2     1  UNL1        0.3205
     15 N         140.8706  142.1039  168.3699 N.2     1  UNL1        0.0097
     16 C         140.5939  141.2616  169.5797 C.2     1  UNL1        0.4717
     17 N         139.6907  140.0687  169.4726 N.2     1  UNL1        0.0158
     18 C         139.0643  139.7182  168.1555 C.2     1  UNL1        0.3714
     19 N         138.1390  138.6105  167.7474 N.2     1  UNL1       -0.0339
     20 C         137.8438  138.7682  166.2853 C.2     1  UNL1        0.2323
     21 C         138.5867  139.9734  165.7897 C.2     1  UNL1        0.0486
     22 C         139.3411  140.5605  166.9456 C.3     1  UNL1        0.2428
     23 C         142.3430  143.5028  159.7438 C.3     1  UNL1        0.0955
     24 C         141.9373  144.3106  158.5469 C.ar    1  UNL1       -0.0044
     25 C         140.8081  145.2924  158.6524 C.ar    1  UNL1       -0.0018
     26 C         140.4024  146.1003  157.4554 C.ar    1  UNL1        0.0111
     27 C         141.1259  145.9264  156.1530 C.ar    1  UNL1        0.0577
     28 CL        140.7201  146.7343  154.9560 Cl      1  UNL1       -0.0822
     29 C         142.2550  144.9446  156.0474 C.ar    1  UNL1        0.0111
     30 C         142.6608  144.1367  157.2444 C.ar    1  UNL1       -0.0018
     31 C         143.6026  142.6890  159.7076 C.3     1  UNL1        0.0414
     32 C         143.6476  141.3465  160.3752 C.3     1  UNL1        0.0741
     33 N         144.3425  141.1882  161.6951 N.3     1  UNL1       -0.2726
     34 C         144.2589  139.9930  162.5976 C.3     1  UNL1        0.0721
     35 C         145.1078  140.2634  163.8045 C.3     1  UNL1        0.0188
     36 C         145.7160  141.6256  163.6476 C.3     1  UNL1        0.0188
     37 C         145.2430  142.1971  162.3439 C.3     1  UNL1        0.0721
@<TRIPOS>BOND
     1     5     6    1
     2     6     1    1
     3     1     2    2
     4     1     3   am
     5     3    23    1
     6    23    31    1
     7    31    32    1
     8    32    33    1
     9    33    34    1
    10    34    35    1
    11    35    36    1
    12    36    37    1
    13    23    24    1
    14    24    25   ar
    15    25    26   ar
    16    26    27   ar
    17    27    28    1
    18    27    29   ar
    19    29    30   ar
    20     6     7    1
    21     7     8    1
    22     8     9    1
    23     9    14    1
    24    14    15    2
    25    15    16    1
    26    16    17    2
    27    17    18    1
    28    18    19    2
    29    19    20    1
    30    20    21    2
    31    21    22    1
    32     9    10    1
    33    10    11    1
    34    11     6    1
    35    37    33    1
    36    30    24   ar
    37    22    14    1
    38    22    18    1
    39     5    12    1
    40     5    13    1
    41     3     4    1
@<TRIPOS>MOLECULE
*****
 37 41 0 0 0
SMALL
GASTEIGER

@<TRIPOS>ATOM
      1 C         139.6563  140.7744  164.5665 C.2     1  UNL1        0.2352
      2 O         139.0339  140.4536  165.8930 O.2     1  UNL1       -0.2737
      3 N         141.0661  140.3514  164.2775 N.am    1  UNL1       -0.3011
      4 H         141.4746  140.5620  163.4069 H       1  UNL1        0.1497
      5 N         137.7801  141.2172  164.5155 N.3     1  UNL1       -0.3162
      6 C         138.8690  141.5184  163.5289 C.3     1  UNL1        0.1166
      7 C         140.2313  141.5613  162.9025 C.3     1  UNL1        0.0739
      8 C         140.4282  142.2434  161.5813 C.3     1  UNL1        0.2039
      9 N         139.2627  142.8828  160.8862 N.pl3   1  UNL1       -0.1931
     10 C         137.9004  142.8399  161.5125 C.3     1  UNL1        0.2039
     11 C         137.7036  142.1577  162.8339 C.3     1  UNL1        0.0739
     12 H         138.1689  140.6986  165.3032 H       1  UNL1        0.1192
     13 H         137.0571  140.6574  164.0636 H       1  UNL1        0.1192
     14 C         139.4596  143.5649  159.5649 C.2     1  UNL1        0.3205
     15 N         140.0314  144.9507  159.5142 N.2     1  UNL1        0.0097
     16 C         140.2283  145.6329  158.1930 C.2     1  UNL1        0.4717
     17 N         139.8534  144.9293  156.9223 N.2     1  UNL1        0.0158
     18 C         139.2816  143.5435  156.9730 C.2     1  UNL1        0.3714
     19 N         138.8226  142.6071  155.8949 N.2     1  UNL1       -0.0339
     20 C         138.3420  141.3462  156.5499 C.2     1  UNL1        0.2323
     21 C         138.5040  141.5033  158.0328 C.2     1  UNL1        0.0486
     22 C         139.0847  142.8613  158.2944 C.3     1  UNL1        0.2428
     23 C         141.8535  139.6074  165.3151 C.3     1  UNL1        0.0955
     24 C         142.3256  140.3167  166.5496 C.ar    1  UNL1       -0.0044
     25 C         142.2931  139.6163  167.8757 C.ar    1  UNL1       -0.0018
     26 C         142.7652  140.3256  169.1102 C.ar    1  UNL1        0.0111
     27 C         143.2698  141.7352  169.0187 C.ar    1  UNL1        0.0577
     28 CL        143.7419  142.4445  170.2533 Cl      1  UNL1       -0.0822
     29 C         143.3023  142.4356  167.6927 C.ar    1  UNL1        0.0111
     30 C         142.8302  141.7263  166.4580 C.ar    1  UNL1       -0.0018
     31 C         142.1688  138.1542  165.1181 C.3     1  UNL1        0.0414
     32 C         141.1142  137.2214  164.6008 C.3     1  UNL1        0.0741
     33 N         140.3419  137.5743  163.3643 N.3     1  UNL1       -0.2726
     34 C         140.9264  137.8813  162.0174 C.3     1  UNL1        0.0721
     35 C         139.7953  138.1789  161.0782 C.3     1  UNL1        0.0188
     36 C         138.5118  138.0559  161.8447 C.3     1  UNL1        0.0188
     37 C         138.8497  137.6823  163.2576 C.3     1  UNL1        0.0721
@<TRIPOS>BOND
     1     5     6    1
     2     6     1    1
     3     1     2    2
     4     1     3   am
     5     3    23    1
     6    23    31    1
     7    31    32    1
     8    32    33    1
     9    33    34    1
    10    34    35    1
    11    35    36    1
    12    36    37    1
    13    23    24    1
    14    24    25   ar
    15    25    26   ar
    16    26    27   ar
    17    27    28    1
    18    27    29   ar
    19    29    30   ar
    20     6     7    1
    21     7     8    1
    22     8     9    1
    23     9    14    1
    24    14    15    2
    25    15    16    1
    26    16    17    2
    27    17    18    1
    28    18    19    2
    29    19    20    1
    30    20    21    2
    31    21    22    1
    32     9    10    1
    33    10    11    1
    34    11     6    1
    35    37    33    1
    36    30    24   ar
    37    22    14    1
    38    22    18    1
    39     5    12    1
    40     5    13    1
    41     3     4    1
@<TRIPOS>MOLECULE
*****
 37 41 0 0 0
SMALL
GASTEIGER

@<TRIPOS>ATOM
      1 C         140.3757  143.3516  164.5200 C.2     1  UNL1        0.2352
      2 O         139.9228  143.6597  165.9164 O.2     1  UNL1       -0.2737
      3 N         141.0890  142.0644  164.2297 N.am    1  UNL1       -0.3011
      4 H         141.3863  141.8623  163.3131 H       1  UNL1        0.1497
      5 N         139.5095  145.0739  164.5674 N.3     1  UNL1       -0.3162
      6 C         140.1154  144.3307  163.4139 C.3     1  UNL1        0.1166
      7 C         140.8117  143.2475  162.6445 C.3     1  UNL1        0.0739
      8 C         141.0372  143.4015  161.1696 C.3     1  UNL1        0.2039
      9 N         140.5665  144.6387  160.4640 N.pl3   1  UNL1       -0.1931
     10 C         139.8702  145.7219  161.2333 C.3     1  UNL1        0.2039
     11 C         139.6446  145.5679  162.7083 C.3     1  UNL1        0.0739
     12 H         139.6101  144.5210  165.4186 H       1  UNL1        0.1192
     13 H         138.5197  145.2383  164.3837 H       1  UNL1        0.1192
     14 C         140.7920  144.7927  158.9891 C.2     1  UNL1        0.3205
     15 N         141.8508  145.7286  158.4859 N.2     1  UNL1        0.0097
     16 C         142.0763  145.8825  157.0111 C.2     1  UNL1        0.4717
     17 N         141.2431  145.1006  156.0392 N.2     1  UNL1        0.0158
     18 C         140.1844  144.1647  156.5423 C.2     1  UNL1        0.3714
     19 N         139.2153  143.2691  155.8292 N.2     1  UNL1       -0.0339
     20 C         138.3907  142.5616  156.8634 C.2     1  UNL1        0.2323
     21 C         138.8503  143.0199  158.2157 C.2     1  UNL1        0.0486
     22 C         139.9588  144.0108  158.0173 C.3     1  UNL1        0.2428
     23 C         141.3494  141.0852  165.3358 C.3     1  UNL1        0.0955
     24 C         140.2360  140.2223  165.8511 C.ar    1  UNL1       -0.0044
     25 C         139.5912  139.2119  164.9491 C.ar    1  UNL1       -0.0018
     26 C         138.4778  138.3490  165.4644 C.ar    1  UNL1        0.0111
     27 C         138.0091  138.4964  166.8816 C.ar    1  UNL1        0.0577
     28 CL        136.8956  137.6334  167.3969 Cl      1  UNL1       -0.0822
     29 C         138.6538  139.5067  167.7836 C.ar    1  UNL1        0.0111
     30 C         139.7673  140.3697  167.2683 C.ar    1  UNL1       -0.0018
     31 C         142.7233  140.9691  165.9265 C.3     1  UNL1        0.0414
     32 C         143.9312  141.1924  165.0656 C.3     1  UNL1        0.0741
     33 N         144.0687  142.4638  164.2817 N.3     1  UNL1       -0.2726
     34 C         143.8556  143.8519  164.8087 C.3     1  UNL1        0.0721
     35 C         144.0987  144.8164  163.6858 C.3     1  UNL1        0.0188
     36 C         144.4620  144.0243  162.4649 C.3     1  UNL1        0.0188
     37 C         144.4435  142.5703  162.8332 C.3     1  UNL1        0.0721
@<TRIPOS>BOND
     1     5     6    1
     2     6     1    1
     3     1     2    2
     4     1     3   am
     5     3    23    1
     6    23    31    1
     7    31    32    1
     8    32    33    1
     9    33    34    1
    10    34    35    1
    11    35    36    1
    12    36    37    1
    13    23    24    1
    14    24    25   ar
    15    25    26   ar
    16    26    27   ar
    17    27    28    1
    18    27    29   ar
    19    29    30   ar
    20     6     7    1
    21     7     8    1
    22     8     9    1
    23     9    14    1
    24    14    15    2
    25    15    16    1
    26    16    17    2
    27    17    18    1
    28    18    19    2
    29    19    20    1
    30    20    21    2
    31    21    22    1
    32     9    10    1
    33    10    11    1
    34    11     6    1
    35    37    33    1
    36    30    24   ar
    37    22    14    1
    38    22    18    1
    39     5    12    1
    40     5    13    1
    41     3     4    1
@<TRIPOS>MOLECULE
*****
 37 41 0 0 0
SMALL
GASTEIGER

@<TRIPOS>ATOM
      1 C         139.9780  141.6754  164.3949 C.2     1  UNL1        0.2352
      2 O         141.0984  140.7109  164.1413 O.2     1  UNL1       -0.2737
      3 N         138.9619  141.3819  165.4586 N.am    1  UNL1       -0.3011
      4 H         138.2266  142.0150  165.6250 H       1  UNL1        0.1497
      5 N         139.3975  143.4395  164.9142 N.3     1  UNL1       -0.3162
      6 C         139.8735  142.9335  163.5848 C.3     1  UNL1        0.1166
      7 C         140.3859  141.9906  162.5367 C.3     1  UNL1        0.0739
      8 C         140.6285  142.4814  161.1403 C.3     1  UNL1        0.2039
      9 N         140.3587  143.9153  160.7918 N.pl3   1  UNL1       -0.1931
     10 C         139.8463  144.8583  161.8398 C.3     1  UNL1        0.2039
     11 C         139.6038  144.3673  163.2364 C.3     1  UNL1        0.0739
     12 H         139.4114  142.6780  165.5926 H       1  UNL1        0.1192
     13 H         138.4460  143.7952  164.8217 H       1  UNL1        0.1192
     14 C         140.6013  144.4062  159.3953 C.2     1  UNL1        0.3205
     15 N         141.6874  145.4060  159.1298 N.2     1  UNL1        0.0097
     16 C         141.9300  145.8969  157.7334 C.2     1  UNL1        0.4717
     17 N         141.0864  145.3879  156.6023 N.2     1  UNL1        0.0158
     18 C         140.0002  144.3881  156.8678 C.2     1  UNL1        0.3714
     19 N         139.0156  143.7113  155.9609 N.2     1  UNL1       -0.0339
     20 C         138.1644  142.8021  156.7970 C.2     1  UNL1        0.2323
     21 C         138.6230  142.9170  158.2205 C.2     1  UNL1        0.0486
     22 C         139.7577  143.8972  158.2643 C.3     1  UNL1        0.2428
     23 C         139.0663  140.1238  166.2688 C.3     1  UNL1        0.0955
     24 C         140.0579  140.0343  167.3907 C.ar    1  UNL1       -0.0044
     25 C         139.6108  140.2517  168.8059 C.ar    1  UNL1       -0.0018
     26 C         140.6024  140.1622  169.9278 C.ar    1  UNL1        0.0111
     27 C         142.0411  139.8553  169.6345 C.ar    1  UNL1        0.0577
     28 CL        143.0327  139.7658  170.7565 Cl      1  UNL1       -0.0822
     29 C         142.4882  139.6379  168.2193 C.ar    1  UNL1        0.0111
     30 C         141.4966  139.7274  167.0973 C.ar    1  UNL1       -0.0018
     31 C         138.1791  138.9552  165.9569 C.3     1  UNL1        0.0414
     32 C         138.7709  137.6875  165.4158 C.3     1  UNL1        0.0741
     33 N         139.5581  137.7126  164.1391 N.3     1  UNL1       -0.2726
     34 C         140.9926  137.3040  163.9798 C.3     1  UNL1        0.0721
     35 C         141.3701  137.4895  162.5399 C.3     1  UNL1        0.0188
     36 C         140.1689  138.0128  161.8095 C.3     1  UNL1        0.0188
     37 C         139.0491  138.1507  162.7980 C.3     1  UNL1        0.0721
@<TRIPOS>BOND
     1     5     6    1
     2     6     1    1
     3     1     2    2
     4     1     3   am
     5     3    23    1
     6    23    31    1
     7    31    32    1
     8    32    33    1
     9    33    34    1
    10    34    35    1
    11    35    36    1
    12    36    37    1
    13    23    24    1
    14    24    25   ar
    15    25    26   ar
    16    26    27   ar
    17    27    28    1
    18    27    29   ar
    19    29    30   ar
    20     6     7    1
    21     7     8    1
    22     8     9    1
    23     9    14    1
    24    14    15    2
    25    15    16    1
    26    16    17    2
    27    17    18    1
    28    18    19    2
    29    19    20    1
    30    20    21    2
    31    21    22    1
    32     9    10    1
    33    10    11    1
    34    11     6    1
    35    37    33    1
    36    30    24   ar
    37    22    14    1
    38    22    18    1
    39     5    12    1
    40     5    13    1
    41     3     4    1
@<TRIPOS>MOLECULE
*****
 37 41 0 0 0
SMALL
GASTEIGER

@<TRIPOS>ATOM
      1 C         143.1926  143.6130  162.9871 C.2     1  UNL1        0.2352
      2 O         144.3024  144.4726  162.4584 O.2     1  UNL1       -0.2737
      3 N         142.0395  143.2473  162.1002 N.am    1  UNL1       -0.3011
      4 H         141.3112  142.6831  162.4473 H       1  UNL1        0.1497
      5 N         144.6637  143.5457  164.2322 N.3     1  UNL1       -0.3162
      6 C         143.2359  143.1191  164.4028 C.3     1  UNL1        0.1166
      7 C         141.7930  142.8640  164.0819 C.3     1  UNL1        0.0739
      8 C         140.8892  142.2631  165.1172 C.3     1  UNL1        0.2039
      9 N         141.4283  141.9173  166.4737 N.pl3   1  UNL1       -0.1931
     10 C         142.8712  142.1724  166.7947 C.3     1  UNL1        0.2039
     11 C         143.7749  142.7733  165.7592 C.3     1  UNL1        0.0739
     12 H         144.7979  143.9157  163.2912 H       1  UNL1        0.1192
     13 H         145.2774  142.7432  164.3726 H       1  UNL1        0.1192
     14 C         140.5245  141.3165  167.5091 C.2     1  UNL1        0.3205
     15 N         140.5630  141.8200  168.9215 N.2     1  UNL1        0.0097
     16 C         139.6593  141.2192  169.9569 C.2     1  UNL1        0.4717
     17 N         138.7168  140.1147  169.5799 N.2     1  UNL1        0.0158
     18 C         138.6782  139.6112  168.1675 C.2     1  UNL1        0.3714
     19 N         137.8603  138.5426  167.5049 N.2     1  UNL1       -0.0339
     20 C         138.2586  138.4830  166.0600 C.2     1  UNL1        0.2323
     21 C         139.3227  139.5148  165.8296 C.2     1  UNL1        0.0486
     22 C         139.5821  140.2120  167.1321 C.3     1  UNL1        0.2428
     23 C         141.9962  143.7412  160.6845 C.3     1  UNL1        0.0955
     24 C         142.7400  143.0046  159.6101 C.ar    1  UNL1       -0.0044
     25 C         143.3261  141.6536  159.8950 C.ar    1  UNL1       -0.0018
     26 C         144.0699  140.9170  158.8206 C.ar    1  UNL1        0.0111
     27 C         144.2275  141.5316  157.4614 C.ar    1  UNL1        0.0577
     28 CL        144.9713  140.7949  156.3870 Cl      1  UNL1       -0.0822
     29 C         143.6414  142.8826  157.1765 C.ar    1  UNL1        0.0111
     30 C         142.8976  143.6192  158.2509 C.ar    1  UNL1       -0.0018
     31 C         141.2091  144.9716  160.3432 C.3     1  UNL1        0.0414
     32 C         140.1647  145.4810  161.2919 C.3     1  UNL1        0.0741
     33 N         139.2119  144.5229  161.9432 N.3     1  UNL1       -0.2726
     34 C         138.6209  144.6628  163.3148 C.3     1  UNL1        0.0721
     35 C         137.7265  143.4831  163.5566 C.3     1  UNL1        0.0188
     36 C         137.7649  142.6141  162.3345 C.3     1  UNL1        0.0188
     37 C         138.6829  143.2568  161.3374 C.3     1  UNL1        0.0721
@<TRIPOS>BOND
     1     5     6    1
     2     6     1    1
     3     1     2    2
     4     1     3   am
     5     3    23    1
     6    23    31    1
     7    31    32    1
     8    32    33    1
     9    33    34    1
    10    34    35    1
    11    35    36    1
    12    36    37    1
    13    23    24    1
    14    24    25   ar
    15    25    26   ar
    16    26    27   ar
    17    27    28    1
    18    27    29   ar
    19    29    30   ar
    20     6     7    1
    21     7     8    1
    22     8     9    1
    23     9    14    1
    24    14    15    2
    25    15    16    1
    26    16    17    2
    27    17    18    1
    28    18    19    2
    29    19    20    1
    30    20    21    2
    31    21    22    1
    32     9    10    1
    33    10    11    1
    34    11     6    1
    35    37    33    1
    36    30    24   ar
    37    22    14    1
    38    22    18    1
    39     5    12    1
    40     5    13    1
    41     3     4    1
@<TRIPOS>MOLECULE
*****
 37 41 0 0 0
SMALL
GASTEIGER

@<TRIPOS>ATOM
      1 C         139.6169  141.2063  162.5238 C.2     1  UNL1        0.2352
      2 O         138.6425  140.9363  161.4158 O.2     1  UNL1       -0.2737
      3 N         140.7706  142.1379  162.2976 N.am    1  UNL1       -0.3011
      4 H         141.4101  142.3151  163.0248 H       1  UNL1        0.1497
      5 N         138.3479  139.8660  163.0824 N.3     1  UNL1       -0.3162
      6 C         139.4378  140.5445  163.8579 C.3     1  UNL1        0.1166
      7 C         140.5900  141.4529  164.1702 C.3     1  UNL1        0.0739
      8 C         141.1845  141.4640  165.5473 C.3     1  UNL1        0.2039
      9 N         140.6269  140.5666  166.6122 N.pl3   1  UNL1       -0.1931
     10 C         139.4748  139.6582  166.3000 C.3     1  UNL1        0.2039
     11 C         138.8803  139.6472  164.9228 C.3     1  UNL1        0.0739
     12 H         138.3406  140.2197  162.1257 H       1  UNL1        0.1192
     13 H         137.4478  140.0572  163.5224 H       1  UNL1        0.1192
     14 C         141.2215  140.5776  167.9893 C.2     1  UNL1        0.3205
     15 N         141.9834  139.3852  168.4868 N.2     1  UNL1        0.0097
     16 C         142.5780  139.3962  169.8638 C.2     1  UNL1        0.4717
     17 N         142.4106  140.5997  170.7435 N.2     1  UNL1        0.0158
     18 C         141.6487  141.7921  170.2459 C.2     1  UNL1        0.3714
     19 N         141.3222  143.1111  170.8813 N.2     1  UNL1       -0.0339
     20 C         140.5258  143.9153  169.8968 C.2     1  UNL1        0.2323
     21 C         140.3601  143.0933  168.6531 C.2     1  UNL1        0.0486
     22 C         141.0541  141.7811  168.8688 C.3     1  UNL1        0.2428
     23 C         140.9497  142.7997  160.9634 C.3     1  UNL1        0.0955
     24 C         141.9862  142.2898  160.0065 C.ar    1  UNL1       -0.0044
     25 C         143.0037  143.2302  159.4318 C.ar    1  UNL1       -0.0018
     26 C         144.0401  142.7203  158.4749 C.ar    1  UNL1        0.0111
     27 C         144.0590  141.2700  158.0926 C.ar    1  UNL1        0.0577
     28 CL        145.0955  140.7601  157.1356 Cl      1  UNL1       -0.0822
     29 C         143.0416  140.3295  158.6672 C.ar    1  UNL1        0.0111
     30 C         142.0051  140.8394  159.6242 C.ar    1  UNL1       -0.0018
     31 C         140.0924  143.9714  160.5863 C.3     1  UNL1        0.0414
     32 C         139.8677  145.0831  161.5679 C.3     1  UNL1        0.0741
     33 N         139.2371  144.7934  162.8977 N.3     1  UNL1       -0.2726
     34 C         137.8652  144.2283  163.1184 C.3     1  UNL1        0.0721
     35 C         137.6478  144.1035  164.5973 C.3     1  UNL1        0.0188
     36 C         138.8853  144.5914  165.2906 C.3     1  UNL1        0.0188
     37 C         139.8675  145.0178  164.2401 C.3     1  UNL1        0.0721
@<TRIPOS>BOND
     1     5     6    1
     2     6     1    1
     3     1     2    2
     4     1     3   am
     5     3    23    1
     6    23    31    1
     7    31    32    1
     8    32    33    1
     9    33    34    1
    10    34    35    1
    11    35    36    1
    12    36    37    1
    13    23    24    1
    14    24    25   ar
    15    25    26   ar
    16    26    27   ar
    17    27    28    1
    18    27    29   ar
    19    29    30   ar
    20     6     7    1
    21     7     8    1
    22     8     9    1
    23     9    14    1
    24    14    15    2
    25    15    16    1
    26    16    17    2
    27    17    18    1
    28    18    19    2
    29    19    20    1
    30    20    21    2
    31    21    22    1
    32     9    10    1
    33    10    11    1
    34    11     6    1
    35    37    33    1
    36    30    24   ar
    37    22    14    1
    38    22    18    1
    39     5    12    1
    40     5    13    1
    41     3     4    1
@<TRIPOS>MOLECULE
*****
 37 41 0 0 0
SMALL
GASTEIGER

@<TRIPOS>ATOM
      1 C         141.8984  140.0723  164.2446 C.2     1  UNL1        0.2352
      2 O         141.5223  141.5229  164.1786 O.2     1  UNL1       -0.2737
      3 N         141.4063  139.2207  165.3771 N.am    1  UNL1       -0.3011
      4 H         141.6532  138.2686  165.4205 H       1  UNL1        0.1497
      5 N         143.3766  138.8430  164.3950 N.3     1  UNL1       -0.3162
      6 C         142.7667  139.4733  163.1782 C.3     1  UNL1        0.1166
      7 C         141.8552  140.3116  162.3317 C.3     1  UNL1        0.0739
      8 C         142.0238  140.3320  160.8414 C.3     1  UNL1        0.2039
      9 N         143.1039  139.5141  160.1975 N.pl3   1  UNL1       -0.1931
     10 C         144.0153  138.6758  161.0439 C.3     1  UNL1        0.2039
     11 C         143.8467  138.6554  162.5343 C.3     1  UNL1        0.0739
     12 H         142.8807  139.1614  165.2276 H       1  UNL1        0.1192
     13 H         144.3585  139.1112  164.4608 H       1  UNL1        0.1192
     14 C         143.2725  139.5345  158.7071 C.2     1  UNL1        0.3205
     15 N         144.4472  140.2380  158.0948 N.2     1  UNL1        0.0097
     16 C         144.6158  140.2585  156.6045 C.2     1  UNL1        0.4717
     17 N         143.6096  139.5754  155.7264 N.2     1  UNL1        0.0158
     18 C         142.4348  138.8718  156.3387 C.2     1  UNL1        0.3714
     19 N         141.2894  138.1168  155.7322 N.2     1  UNL1       -0.0339
     20 C         140.4129  137.6297  156.8478 C.2     1  UNL1        0.2323
     21 C         141.0166  138.0837  158.1437 C.2     1  UNL1        0.0486
     22 C         142.2663  138.8514  157.8291 C.3     1  UNL1        0.2428
     23 C         140.5380  139.8196  166.4436 C.3     1  UNL1        0.0955
     24 C         141.1470  140.6791  167.5115 C.ar    1  UNL1       -0.0044
     25 C         142.3536  140.1997  168.2628 C.ar    1  UNL1       -0.0018
     26 C         142.9625  141.0592  169.3307 C.ar    1  UNL1        0.0111
     27 C         142.3648  142.3981  169.6473 C.ar    1  UNL1        0.0577
     28 CL        142.9738  143.2576  170.7153 Cl      1  UNL1       -0.0822
     29 C         141.1583  142.8775  168.8962 C.ar    1  UNL1        0.0111
     30 C         140.5493  142.0180  167.8282 C.ar    1  UNL1       -0.0018
     31 C         139.0608  139.5591  166.4421 C.3     1  UNL1        0.0414
     32 C         138.4884  138.4921  165.5567 C.3     1  UNL1        0.0741
     33 N         138.5110  138.6622  164.0665 N.3     1  UNL1       -0.2726
     34 C         138.9487  137.6318  163.0682 C.3     1  UNL1        0.0721
     35 C         138.8082  138.2253  161.6977 C.3     1  UNL1        0.0188
     36 C         138.2837  139.6224  161.8492 C.3     1  UNL1        0.0188
     37 C         138.1000  139.8924  163.3133 C.3     1  UNL1        0.0721
@<TRIPOS>BOND
     1     5     6    1
     2     6     1    1
     3     1     2    2
     4     1     3   am
     5     3    23    1
     6    23    31    1
     7    31    32    1
     8    32    33    1
     9    33    34    1
    10    34    35    1
    11    35    36    1
    12    36    37    1
    13    23    24    1
    14    24    25   ar
    15    25    26   ar
    16    26    27   ar
    17    27    28    1
    18    27    29   ar
    19    29    30   ar
    20     6     7    1
    21     7     8    1
    22     8     9    1
    23     9    14    1
    24    14    15    2
    25    15    16    1
    26    16    17    2
    27    17    18    1
    28    18    19    2
    29    19    20    1
    30    20    21    2
    31    21    22    1
    32     9    10    1
    33    10    11    1
    34    11     6    1
    35    37    33    1
    36    30    24   ar
    37    22    14    1
    38    22    18    1
    39     5    12    1
    40     5    13    1
    41     3     4    1
