@<TRIPOS>MOLECULE
*****
 39 41 0 0 0
SMALL
GASTEIGER

@<TRIPOS>ATOM
      1 C         141.7716  138.2089  158.8641 C.2     1  UNL1        0.2317
      2 O         142.6567  137.6181  159.9214 O.2     1  UNL1       -0.2744
      3 N         140.4740  138.8561  159.2479 N.am    1  UNL1       -0.2836
      4 H         139.8931  139.2438  158.5540 H       1  UNL1        0.1549
      5 C         140.0614  138.9125  160.6890 C.ar    1  UNL1        0.0503
      6 C         140.7305  139.8763  161.6235 C.ar    1  UNL1        0.0144
      7 C         140.3180  139.9327  163.0645 C.ar    1  UNL1       -0.0002
      8 C         139.2362  139.0253  163.5711 C.ar    1  UNL1        0.0182
      9 C         138.5671  138.0615  162.6366 C.ar    1  UNL1       -0.0002
     10 C         138.9797  138.0051  161.1955 C.ar    1  UNL1        0.0144
     11 C         138.8237  139.0818  165.0121 C.3     1  UNL1        0.2827
     12 O         139.3940  137.7116  165.2291 O.3     1  UNL1       -0.3692
     13 H         139.2654  137.4506  166.1544 H       1  UNL1        0.2112
     14 C         138.4111  139.1382  166.4531 C.3     1  UNL1        0.4311
     15 F         137.9986  139.1947  167.8942 F       1  UNL1       -0.1669
     16 F         139.8513  139.2328  166.8617 F       1  UNL1       -0.1669
     17 F         137.5374  139.0869  166.3174 F       1  UNL1       -0.1669
     18 C         138.2533  140.4520  164.7951 C.3     1  UNL1        0.4311
     19 F         137.6829  141.8223  164.5781 F       1  UNL1       -0.1669
     20 F         137.5902  140.2095  164.2603 F       1  UNL1       -0.1669
     21 F         139.1450  141.3484  165.6021 F       1  UNL1       -0.1669
     22 C         142.1843  138.1525  157.4231 C.3     1  UNL1        0.1233
     23 C         145.5902  140.7017  155.9564 C.ar    1  UNL1        0.1056
     24 C         144.8790  141.0594  157.2277 C.ar    1  UNL1        0.0180
     25 C         143.7437  140.2096  157.7166 C.ar    1  UNL1       -0.0024
     26 C         143.3196  139.0022  156.9342 C.ar    1  UNL1       -0.0118
     27 C         144.0308  138.6445  155.6629 C.ar    1  UNL1       -0.0024
     28 C         145.1661  139.4942  155.1740 C.ar    1  UNL1        0.0180
     29 S         146.7255  141.5514  155.4675 S.O2    1  UNL1        0.0087
     30 O         146.5392  141.0040  154.0835 O.2     1  UNL1       -0.1686
     31 O         146.9118  142.0988  156.8516 O.2     1  UNL1       -0.1686
     32 C         149.2669  141.8824  155.0411 C.3     1  UNL1        0.0276
     33 C         147.8608  142.4011  154.9787 C.3     1  UNL1        0.1560
     34 C         141.4616  137.2463  156.4710 C.3     1  UNL1        0.1409
     35 N         141.8861  135.8146  156.3299 N.ar    1  UNL1       -0.2486
     36 C         141.3354  134.8245  155.3467 C.ar    1  UNL1        0.0967
     37 C         142.0448  133.5195  155.5563 C.ar    1  UNL1        0.0427
     38 C         143.0338  133.7031  156.6690 C.ar    1  UNL1        0.1217
     39 N         142.9358  135.1215  157.1472 N.ar    1  UNL1       -0.1676
@<TRIPOS>BOND
     1    32    33    1
     2    33    29    1
     3    29    30    2
     4    29    31    2
     5    29    23    1
     6    23    24   ar
     7    24    25   ar
     8    25    26   ar
     9    26    22    1
    10    22    34    1
    11    34    35    1
    12    35    36   ar
    13    36    37   ar
    14    37    38   ar
    15    38    39   ar
    16    22     1    1
    17     1     2    2
    18     1     3   am
    19     3     5    1
    20     5     6   ar
    21     6     7   ar
    22     7     8   ar
    23     8    11    1
    24    11    12    1
    25    11    14    1
    26    14    15    1
    27    14    16    1
    28    14    17    1
    29    11    18    1
    30    18    19    1
    31    18    20    1
    32    18    21    1
    33     8     9   ar
    34     9    10   ar
    35    26    27   ar
    36    27    28   ar
    37    28    23   ar
    38    39    35   ar
    39    10     5   ar
    40     3     4    1
    41    12    13    1
@<TRIPOS>MOLECULE
*****
 39 41 0 0 0
SMALL
GASTEIGER

@<TRIPOS>ATOM
      1 C         141.8735  138.1555  158.4890 C.2     1  UNL1        0.2317
      2 O         142.6358  137.4170  159.5490 O.2     1  UNL1       -0.2744
      3 N         140.6313  138.9149  158.8501 N.am    1  UNL1       -0.2836
      4 H         140.1310  139.3996  158.1544 H       1  UNL1        0.1549
      5 C         140.1515  138.9358  160.2712 C.ar    1  UNL1        0.0503
      6 C         140.9259  139.6872  161.3132 C.ar    1  UNL1        0.0144
      7 C         140.4461  139.7081  162.7342 C.ar    1  UNL1       -0.0002
      8 C         139.1920  138.9777  163.1133 C.ar    1  UNL1        0.0182
      9 C         138.4176  138.2264  162.0712 C.ar    1  UNL1       -0.0002
     10 C         138.8974  138.2054  160.6502 C.ar    1  UNL1        0.0144
     11 C         138.7122  138.9986  164.5343 C.3     1  UNL1        0.2827
     12 O         137.7560  140.1034  164.1952 O.3     1  UNL1       -0.3692
     13 H         137.2573  140.3543  164.9885 H       1  UNL1        0.2112
     14 C         138.2325  139.0196  165.9553 C.3     1  UNL1        0.4311
     15 F         137.7527  139.0406  167.3764 F       1  UNL1       -0.1669
     16 F         138.7427  140.4219  166.1069 F       1  UNL1       -0.1669
     17 F         137.8989  138.1992  165.9688 F       1  UNL1       -0.1669
     18 C         139.6685  137.8939  164.8734 C.3     1  UNL1        0.4311
     19 F         140.6248  136.7891  165.2125 F       1  UNL1       -0.1669
     20 F         139.2198  137.2385  164.4813 F       1  UNL1       -0.1669
     21 F         140.7566  138.5798  165.6451 F       1  UNL1       -0.1669
     22 C         142.3533  138.1346  157.0680 C.3     1  UNL1        0.1233
     23 C         145.7159  140.8375  155.7885 C.ar    1  UNL1        0.1056
     24 C         145.3423  139.6545  154.9454 C.ar    1  UNL1        0.0180
     25 C         144.2215  138.7535  155.3719 C.ar    1  UNL1       -0.0024
     26 C         143.4742  139.0356  156.6415 C.ar    1  UNL1       -0.0118
     27 C         143.8477  140.2186  157.4846 C.ar    1  UNL1       -0.0024
     28 C         144.9685  141.1196  157.0581 C.ar    1  UNL1        0.0180
     29 S         146.8367  141.7385  155.3620 S.O2    1  UNL1        0.0087
     30 O         146.9802  142.2278  156.7727 O.2     1  UNL1       -0.1686
     31 O         146.6932  141.2493  153.9513 O.2     1  UNL1       -0.1686
     32 C         149.2409  142.0516  154.4283 C.3     1  UNL1        0.0276
     33 C         147.9576  142.6395  154.9355 C.3     1  UNL1        0.1560
     34 C         141.7123  137.2127  156.0735 C.3     1  UNL1        0.1409
     35 N         142.0021  135.7416  156.1191 N.ar    1  UNL1       -0.2486
     36 C         141.3274  134.6841  155.2967 C.ar    1  UNL1        0.0967
     37 C         141.9259  133.3587  155.6644 C.ar    1  UNL1        0.0427
     38 C         142.9705  133.5971  156.7141 C.ar    1  UNL1        0.1217
     39 N         143.0177  135.0699  156.9952 N.ar    1  UNL1       -0.1676
@<TRIPOS>BOND
     1    32    33    1
     2    33    29    1
     3    29    30    2
     4    29    31    2
     5    29    23    1
     6    23    24   ar
     7    24    25   ar
     8    25    26   ar
     9    26    22    1
    10    22    34    1
    11    34    35    1
    12    35    36   ar
    13    36    37   ar
    14    37    38   ar
    15    38    39   ar
    16    22     1    1
    17     1     2    2
    18     1     3   am
    19     3     5    1
    20     5     6   ar
    21     6     7   ar
    22     7     8   ar
    23     8    11    1
    24    11    12    1
    25    11    14    1
    26    14    15    1
    27    14    16    1
    28    14    17    1
    29    11    18    1
    30    18    19    1
    31    18    20    1
    32    18    21    1
    33     8     9   ar
    34     9    10   ar
    35    26    27   ar
    36    27    28   ar
    37    28    23   ar
    38    39    35   ar
    39    10     5   ar
    40     3     4    1
    41    12    13    1
@<TRIPOS>MOLECULE
*****
 39 41 0 0 0
SMALL
GASTEIGER

@<TRIPOS>ATOM
      1 C         141.1550  139.0949  159.0054 C.2     1  UNL1        0.2317
      2 O         141.8414  140.1121  159.8682 O.2     1  UNL1       -0.2744
      3 N         140.0845  138.2191  159.5858 N.am    1  UNL1       -0.2836
      4 H         139.6339  137.5515  159.0196 H       1  UNL1        0.1549
      5 C         139.7003  138.3604  161.0290 C.ar    1  UNL1        0.0503
      6 C         138.4478  139.0960  161.4031 C.ar    1  UNL1        0.0144
      7 C         138.0636  139.2374  162.8461 C.ar    1  UNL1       -0.0002
      8 C         138.9320  138.6431  163.9151 C.ar    1  UNL1        0.0182
      9 C         140.1846  137.9075  163.5410 C.ar    1  UNL1       -0.0002
     10 C         140.5687  137.7661  162.0979 C.ar    1  UNL1        0.0144
     11 C         138.5479  138.7845  165.3582 C.3     1  UNL1        0.2827
     12 O         138.5831  137.2930  165.5136 O.3     1  UNL1       -0.3692
     13 H         138.3564  137.0577  166.4270 H       1  UNL1        0.2112
     14 C         138.1637  138.9258  166.8012 C.3     1  UNL1        0.4311
     15 F         137.7796  139.0672  168.2443 F       1  UNL1       -0.1669
     16 F         139.5590  139.3680  167.1293 F       1  UNL1       -0.1669
     17 F         137.3183  138.6769  166.7128 F       1  UNL1       -0.1669
     18 C         138.5127  140.2759  165.2027 C.3     1  UNL1        0.4311
     19 F         138.4774  141.7675  165.0472 F       1  UNL1       -0.1669
     20 F         137.6398  140.3757  165.3153 F       1  UNL1       -0.1669
     21 F         139.9450  140.6496  164.9601 F       1  UNL1       -0.1669
     22 C         141.5391  138.9536  157.5624 C.3     1  UNL1        0.1233
     23 C         141.8680  134.8651  155.7115 C.ar    1  UNL1        0.1056
     24 C         142.8724  135.3088  156.7333 C.ar    1  UNL1        0.0180
     25 C         142.7628  136.6716  157.3503 C.ar    1  UNL1       -0.0024
     26 C         141.6488  137.5908  156.9454 C.ar    1  UNL1       -0.0118
     27 C         140.6443  137.1471  155.9236 C.ar    1  UNL1       -0.0024
     28 C         140.7540  135.7843  155.3066 C.ar    1  UNL1        0.0180
     29 S         141.9777  133.5023  155.0945 S.O2    1  UNL1        0.0087
     30 O         142.1887  132.9039  156.4537 O.2     1  UNL1       -0.1686
     31 O         141.7666  134.1006  153.7353 O.2     1  UNL1       -0.1686
     32 C         143.4081  131.4288  154.4585 C.3     1  UNL1        0.0276
     33 C         142.0873  132.1394  154.4775 C.3     1  UNL1        0.1560
     34 C         141.8137  140.1751  156.7363 C.3     1  UNL1        0.1409
     35 N         143.1897  140.4181  156.1910 N.ar    1  UNL1       -0.2486
     36 C         143.5242  141.2135  154.9641 C.ar    1  UNL1        0.0967
     37 C         145.0141  141.1953  154.7917 C.ar    1  UNL1        0.0427
     38 C         145.6006  140.3886  155.9121 C.ar    1  UNL1        0.1217
     39 N         144.4731  139.9082  156.7770 N.ar    1  UNL1       -0.1676
@<TRIPOS>BOND
     1    32    33    1
     2    33    29    1
     3    29    30    2
     4    29    31    2
     5    29    23    1
     6    23    24   ar
     7    24    25   ar
     8    25    26   ar
     9    26    22    1
    10    22    34    1
    11    34    35    1
    12    35    36   ar
    13    36    37   ar
    14    37    38   ar
    15    38    39   ar
    16    22     1    1
    17     1     2    2
    18     1     3   am
    19     3     5    1
    20     5     6   ar
    21     6     7   ar
    22     7     8   ar
    23     8    11    1
    24    11    12    1
    25    11    14    1
    26    14    15    1
    27    14    16    1
    28    14    17    1
    29    11    18    1
    30    18    19    1
    31    18    20    1
    32    18    21    1
    33     8     9   ar
    34     9    10   ar
    35    26    27   ar
    36    27    28   ar
    37    28    23   ar
    38    39    35   ar
    39    10     5   ar
    40     3     4    1
    41    12    13    1
@<TRIPOS>MOLECULE
*****
 39 41 0 0 0
SMALL
GASTEIGER

@<TRIPOS>ATOM
      1 C         140.5345  139.1936  158.9862 C.2     1  UNL1        0.2317
      2 O         141.2286  140.3080  159.7118 O.2     1  UNL1       -0.2744
      3 N         139.6153  138.2715  159.7311 N.am    1  UNL1       -0.2836
      4 H         139.1598  137.5401  159.2549 H       1  UNL1        0.1549
      5 C         139.3902  138.4639  161.2016 C.ar    1  UNL1        0.0503
      6 C         140.2560  137.7449  162.1933 C.ar    1  UNL1        0.0144
      7 C         140.0309  137.9372  163.6637 C.ar    1  UNL1       -0.0002
      8 C         138.9400  138.8486  164.1426 C.ar    1  UNL1        0.0182
      9 C         138.0741  139.5676  163.1510 C.ar    1  UNL1       -0.0002
     10 C         138.2992  139.3752  161.6804 C.ar    1  UNL1        0.0144
     11 C         138.7149  139.0409  165.6131 C.3     1  UNL1        0.2827
     12 O         138.5250  137.5621  165.7774 O.3     1  UNL1       -0.3692
     13 H         138.3468  137.3606  166.7094 H       1  UNL1        0.2112
     14 C         138.4898  139.2332  167.0835 C.3     1  UNL1        0.4311
     15 F         138.2646  139.4255  168.5541 F       1  UNL1       -0.1669
     16 F         137.1374  138.5964  166.9598 F       1  UNL1       -0.1669
     17 F         139.2662  139.6203  167.2619 F       1  UNL1       -0.1669
     18 C         138.9047  140.5197  165.4487 C.3     1  UNL1        0.4311
     19 F         139.0946  141.9986  165.2844 F       1  UNL1       -0.1669
     20 F         138.0575  140.7508  165.5645 F       1  UNL1       -0.1669
     21 F         140.3758  140.6712  165.1978 F       1  UNL1       -0.1669
     22 C         140.7597  139.0013  157.5157 C.3     1  UNL1        0.1233
     23 C         142.1908  135.0290  155.9591 C.ar    1  UNL1        0.1056
     24 C         140.9373  135.6425  155.4093 C.ar    1  UNL1        0.0180
     25 C         140.4602  136.9665  155.9282 C.ar    1  UNL1       -0.0024
     26 C         141.2367  137.6772  156.9969 C.ar    1  UNL1       -0.0118
     27 C         142.4902  137.0637  157.5466 C.ar    1  UNL1       -0.0024
     28 C         142.9672  135.7396  157.0278 C.ar    1  UNL1        0.0180
     29 S         142.6678  133.7049  155.4403 S.O2    1  UNL1        0.0087
     30 O         142.6138  133.1412  156.8293 O.2     1  UNL1       -0.1686
     31 O         142.7218  134.2686  154.0513 O.2     1  UNL1       -0.1686
     32 C         144.2638  131.6623  155.6154 C.3     1  UNL1        0.0276
     33 C         143.1448  132.3808  154.9214 C.3     1  UNL1        0.1560
     34 C         140.5078  140.1330  156.5641 C.3     1  UNL1        0.1409
     35 N         139.2194  140.8981  156.6328 N.ar    1  UNL1       -0.2486
     36 C         137.8754  140.4035  156.1865 C.ar    1  UNL1        0.0967
     37 C         136.8741  141.4917  156.4377 C.ar    1  UNL1        0.0427
     38 C         137.5992  142.6589  157.0393 C.ar    1  UNL1        0.1217
     39 N         139.0487  142.2921  157.1599 N.ar    1  UNL1       -0.1676
@<TRIPOS>BOND
     1    32    33    1
     2    33    29    1
     3    29    30    2
     4    29    31    2
     5    29    23    1
     6    23    24   ar
     7    24    25   ar
     8    25    26   ar
     9    26    22    1
    10    22    34    1
    11    34    35    1
    12    35    36   ar
    13    36    37   ar
    14    37    38   ar
    15    38    39   ar
    16    22     1    1
    17     1     2    2
    18     1     3   am
    19     3     5    1
    20     5     6   ar
    21     6     7   ar
    22     7     8   ar
    23     8    11    1
    24    11    12    1
    25    11    14    1
    26    14    15    1
    27    14    16    1
    28    14    17    1
    29    11    18    1
    30    18    19    1
    31    18    20    1
    32    18    21    1
    33     8     9   ar
    34     9    10   ar
    35    26    27   ar
    36    27    28   ar
    37    28    23   ar
    38    39    35   ar
    39    10     5   ar
    40     3     4    1
    41    12    13    1
@<TRIPOS>MOLECULE
*****
 39 41 0 0 0
SMALL
GASTEIGER

@<TRIPOS>ATOM
      1 C         141.6100  142.7212  162.1606 C.2     1  UNL1        0.2317
      2 O         141.2141  141.2930  162.3921 O.2     1  UNL1       -0.2744
      3 N         141.8018  143.6447  163.3270 N.am    1  UNL1       -0.2836
      4 H         142.0617  144.5821  163.1751 H       1  UNL1        0.1549
      5 C         141.5976  143.1400  164.7247 C.ar    1  UNL1        0.0503
      6 C         140.2210  143.1168  165.3201 C.ar    1  UNL1        0.0144
      7 C         140.0168  142.6121  166.7178 C.ar    1  UNL1       -0.0002
      8 C         141.1892  142.1306  167.5202 C.ar    1  UNL1        0.0182
      9 C         142.5658  142.1538  166.9248 C.ar    1  UNL1       -0.0002
     10 C         142.7700  142.6585  165.5270 C.ar    1  UNL1        0.0144
     11 C         140.9850  141.6259  168.9178 C.3     1  UNL1        0.2827
     12 O         141.0695  140.2135  168.4202 O.3     1  UNL1       -0.3692
     13 H         140.9632  139.6013  169.1650 H       1  UNL1        0.2112
     14 C         140.7808  141.1213  170.3155 C.3     1  UNL1        0.4311
     15 F         140.5765  140.6165  171.7133 F       1  UNL1       -0.1669
     16 F         139.3280  140.8925  170.0206 F       1  UNL1       -0.1669
     17 F         141.6175  141.2190  170.5890 F       1  UNL1       -0.1669
     18 C         140.9005  143.0384  169.4155 C.3     1  UNL1        0.4311
     19 F         140.8159  144.4510  169.9132 F       1  UNL1       -0.1669
     20 F         140.0224  143.1272  169.3399 F       1  UNL1       -0.1669
     21 F         142.3235  143.4016  169.7204 F       1  UNL1       -0.1669
     22 C         141.8142  143.2259  160.7629 C.3     1  UNL1        0.1233
     23 C         143.1800  140.4087  157.5306 C.ar    1  UNL1        0.1056
     24 C         141.7195  140.5334  157.8489 C.ar    1  UNL1        0.0180
     25 C         141.2642  141.4724  158.9264 C.ar    1  UNL1       -0.0024
     26 C         142.2695  142.2868  159.6855 C.ar    1  UNL1       -0.0118
     27 C         143.7299  142.1621  159.3671 C.ar    1  UNL1       -0.0024
     28 C         144.1852  141.2230  158.2897 C.ar    1  UNL1        0.0180
     29 S         143.6352  139.4696  156.4531 S.O2    1  UNL1        0.0087
     30 O         142.2072  139.1245  156.1505 O.2     1  UNL1       -0.1686
     31 O         145.0633  139.8147  156.7558 O.2     1  UNL1       -0.1686
     32 C         144.0366  137.0485  155.6005 C.3     1  UNL1        0.0276
     33 C         144.0905  138.5305  155.3757 C.3     1  UNL1        0.1560
     34 C         141.5631  144.6696  160.4427 C.3     1  UNL1        0.1409
     35 N         141.3628  145.0982  159.0193 N.ar    1  UNL1       -0.2486
     36 C         140.0832  145.0054  158.2422 C.ar    1  UNL1        0.0967
     37 C         140.3365  145.5448  156.8657 C.ar    1  UNL1        0.0427
     38 C         141.7728  145.9710  156.7919 C.ar    1  UNL1        0.1217
     39 N         142.4071  145.6951  158.1229 N.ar    1  UNL1       -0.1676
@<TRIPOS>BOND
     1    32    33    1
     2    33    29    1
     3    29    30    2
     4    29    31    2
     5    29    23    1
     6    23    24   ar
     7    24    25   ar
     8    25    26   ar
     9    26    22    1
    10    22    34    1
    11    34    35    1
    12    35    36   ar
    13    36    37   ar
    14    37    38   ar
    15    38    39   ar
    16    22     1    1
    17     1     2    2
    18     1     3   am
    19     3     5    1
    20     5     6   ar
    21     6     7   ar
    22     7     8   ar
    23     8    11    1
    24    11    12    1
    25    11    14    1
    26    14    15    1
    27    14    16    1
    28    14    17    1
    29    11    18    1
    30    18    19    1
    31    18    20    1
    32    18    21    1
    33     8     9   ar
    34     9    10   ar
    35    26    27   ar
    36    27    28   ar
    37    28    23   ar
    38    39    35   ar
    39    10     5   ar
    40     3     4    1
    41    12    13    1
@<TRIPOS>MOLECULE
*****
 39 41 0 0 0
SMALL
GASTEIGER

@<TRIPOS>ATOM
      1 C         140.5804  141.2941  161.9506 C.2     1  UNL1        0.2317
      2 O         141.9738  141.2544  162.5048 O.2     1  UNL1       -0.2744
      3 N         139.4028  141.1887  162.8737 N.am    1  UNL1       -0.2836
      4 H         138.4883  141.2147  162.5100 H       1  UNL1        0.1549
      5 C         139.6186  141.0437  164.3511 C.ar    1  UNL1        0.0503
      6 C         139.8474  142.2600  165.1986 C.ar    1  UNL1        0.0144
      7 C         140.0631  142.1150  166.6759 C.ar    1  UNL1       -0.0002
      8 C         140.0501  140.7536  167.3057 C.ar    1  UNL1        0.0182
      9 C         139.8213  139.5373  166.4582 C.ar    1  UNL1       -0.0002
     10 C         139.6056  139.6824  164.9809 C.ar    1  UNL1        0.0144
     11 C         140.2659  140.6086  168.7830 C.3     1  UNL1        0.2827
     12 O         138.9728  139.8571  168.8981 O.3     1  UNL1       -0.3692
     13 H         138.8257  139.6067  169.8236 H       1  UNL1        0.2112
     14 C         140.4816  140.4636  170.2602 C.3     1  UNL1        0.4311
     15 F         140.6974  140.3185  171.7376 F       1  UNL1       -0.1669
     16 F         141.1487  139.1395  170.0329 F       1  UNL1       -0.1669
     17 F         140.1062  141.2292  170.4999 F       1  UNL1       -0.1669
     18 C         141.5589  141.3601  168.6679 C.3     1  UNL1        0.4311
     19 F         142.8520  142.1115  168.5528 F       1  UNL1       -0.1669
     20 F         142.0426  140.6934  168.3418 F       1  UNL1       -0.1669
     21 F         141.2253  142.7350  169.1660 F       1  UNL1       -0.1669
     22 C         140.3647  141.4391  160.4733 C.3     1  UNL1        0.1233
     23 C         141.5439  138.1062  157.6893 C.ar    1  UNL1        0.1056
     24 C         142.5850  139.0523  158.2098 C.ar    1  UNL1        0.0180
     25 C         142.1919  140.1633  159.1379 C.ar    1  UNL1       -0.0024
     26 C         140.7578  140.3282  159.5453 C.ar    1  UNL1       -0.0118
     27 C         139.7167  139.3821  159.0247 C.ar    1  UNL1       -0.0024
     28 C         140.1098  138.2711  158.0967 C.ar    1  UNL1        0.0180
     29 S         141.9370  136.9952  156.7613 S.O2    1  UNL1        0.0087
     30 O         143.3760  137.1909  157.1365 O.2     1  UNL1       -0.1686
     31 O         140.4979  136.7996  156.3860 O.2     1  UNL1       -0.1686
     32 C         143.7772  135.5318  155.6559 C.3     1  UNL1        0.0276
     33 C         142.3301  135.8843  155.8332 C.3     1  UNL1        0.1560
     34 C         139.7559  142.6952  159.9241 C.3     1  UNL1        0.1409
     35 N         139.6257  143.9089  160.7958 N.ar    1  UNL1       -0.2486
     36 C         140.4422  145.1627  160.6893 C.ar    1  UNL1        0.0967
     37 C         139.9773  146.1106  161.7547 C.ar    1  UNL1        0.0427
     38 C         138.8733  145.4428  162.5197 C.ar    1  UNL1        0.1217
     39 N         138.6560  144.0820  161.9271 N.ar    1  UNL1       -0.1676
@<TRIPOS>BOND
     1    32    33    1
     2    33    29    1
     3    29    30    2
     4    29    31    2
     5    29    23    1
     6    23    24   ar
     7    24    25   ar
     8    25    26   ar
     9    26    22    1
    10    22    34    1
    11    34    35    1
    12    35    36   ar
    13    36    37   ar
    14    37    38   ar
    15    38    39   ar
    16    22     1    1
    17     1     2    2
    18     1     3   am
    19     3     5    1
    20     5     6   ar
    21     6     7   ar
    22     7     8   ar
    23     8    11    1
    24    11    12    1
    25    11    14    1
    26    14    15    1
    27    14    16    1
    28    14    17    1
    29    11    18    1
    30    18    19    1
    31    18    20    1
    32    18    21    1
    33     8     9   ar
    34     9    10   ar
    35    26    27   ar
    36    27    28   ar
    37    28    23   ar
    38    39    35   ar
    39    10     5   ar
    40     3     4    1
    41    12    13    1
@<TRIPOS>MOLECULE
*****
 39 41 0 0 0
SMALL
GASTEIGER

@<TRIPOS>ATOM
      1 C         142.1472  140.6599  161.7113 C.2     1  UNL1        0.2317
      2 O         141.3848  141.9226  161.9843 O.2     1  UNL1       -0.2744
      3 N         142.8707  139.9648  162.8264 N.am    1  UNL1       -0.2836
      4 H         143.3711  139.1360  162.6473 H       1  UNL1        0.1549
      5 C         142.8320  140.5324  164.2143 C.ar    1  UNL1        0.0503
      6 C         142.4219  139.6657  165.3679 C.ar    1  UNL1        0.0144
      7 C         142.3831  140.2333  166.7558 C.ar    1  UNL1       -0.0002
      8 C         142.7544  141.6676  166.9902 C.ar    1  UNL1        0.0182
      9 C         143.1645  142.5343  165.8367 C.ar    1  UNL1       -0.0002
     10 C         143.2033  141.9667  164.4487 C.ar    1  UNL1        0.0144
     11 C         142.7156  142.2352  168.3781 C.3     1  UNL1        0.2827
     12 O         144.1095  142.7607  168.2022 O.3     1  UNL1       -0.3692
     13 H         144.3863  143.2200  169.0104 H       1  UNL1        0.2112
     14 C         142.6768  142.8027  169.7660 C.3     1  UNL1        0.4311
     15 F         142.6381  143.3703  171.1540 F       1  UNL1       -0.1669
     16 F         143.8680  141.9711  170.1394 F       1  UNL1       -0.1669
     17 F         141.9760  143.3310  169.6471 F       1  UNL1       -0.1669
     18 C         141.3218  141.7097  168.5541 C.3     1  UNL1        0.4311
     19 F         139.9279  141.1841  168.7300 F       1  UNL1       -0.1669
     20 F         141.5211  141.0648  169.1277 F       1  UNL1       -0.1669
     21 F         140.4884  142.5873  167.6681 F       1  UNL1       -0.1669
     22 C         142.1859  140.0923  160.3234 C.3     1  UNL1        0.1233
     23 C         145.1760  141.6448  157.3403 C.ar    1  UNL1        0.1056
     24 C         144.9244  142.3992  158.6121 C.ar    1  UNL1        0.0180
     25 C         143.9277  141.8817  159.6065 C.ar    1  UNL1       -0.0024
     26 C         143.1826  140.6098  159.3291 C.ar    1  UNL1       -0.0118
     27 C         143.4342  139.8554  158.0573 C.ar    1  UNL1       -0.0024
     28 C         144.4309  140.3729  157.0629 C.ar    1  UNL1        0.0180
     29 S         146.1727  142.1623  156.3459 S.O2    1  UNL1        0.0087
     30 O         145.4003  141.5150  155.2349 O.2     1  UNL1       -0.1686
     31 O         146.9451  142.8096  157.4570 O.2     1  UNL1       -0.1686
     32 C         148.4966  141.9984  155.1959 C.3     1  UNL1        0.0276
     33 C         147.1694  142.6798  155.3516 C.3     1  UNL1        0.1560
     34 C         141.2279  139.0073  159.9299 C.3     1  UNL1        0.1409
     35 N         140.1390  138.5897  160.8732 N.ar    1  UNL1       -0.2486
     36 C         138.6883  138.9546  160.7621 C.ar    1  UNL1        0.0967
     37 C         137.9623  138.3244  161.9135 C.ar    1  UNL1        0.0427
     38 C         138.9642  137.5700  162.7362 C.ar    1  UNL1        0.1217
     39 N         140.3096  137.7339  162.0934 N.ar    1  UNL1       -0.1676
@<TRIPOS>BOND
     1    32    33    1
     2    33    29    1
     3    29    30    2
     4    29    31    2
     5    29    23    1
     6    23    24   ar
     7    24    25   ar
     8    25    26   ar
     9    26    22    1
    10    22    34    1
    11    34    35    1
    12    35    36   ar
    13    36    37   ar
    14    37    38   ar
    15    38    39   ar
    16    22     1    1
    17     1     2    2
    18     1     3   am
    19     3     5    1
    20     5     6   ar
    21     6     7   ar
    22     7     8   ar
    23     8    11    1
    24    11    12    1
    25    11    14    1
    26    14    15    1
    27    14    16    1
    28    14    17    1
    29    11    18    1
    30    18    19    1
    31    18    20    1
    32    18    21    1
    33     8     9   ar
    34     9    10   ar
    35    26    27   ar
    36    27    28   ar
    37    28    23   ar
    38    39    35   ar
    39    10     5   ar
    40     3     4    1
    41    12    13    1
@<TRIPOS>MOLECULE
*****
 39 41 0 0 0
SMALL
GASTEIGER

@<TRIPOS>ATOM
      1 C         139.8253  140.7340  162.2155 C.2     1  UNL1        0.2317
      2 O         139.1695  139.5949  162.9384 O.2     1  UNL1       -0.2744
      3 N         140.6979  141.6957  162.9662 N.am    1  UNL1       -0.2836
      4 H         141.1284  142.4433  162.4918 H       1  UNL1        0.1549
      5 C         140.9148  141.5183  164.4399 C.ar    1  UNL1        0.0503
      6 C         141.8506  140.4571  164.9378 C.ar    1  UNL1        0.0144
      7 C         142.0675  140.2797  166.4114 C.ar    1  UNL1       -0.0002
      8 C         141.3485  141.1635  167.3871 C.ar    1  UNL1        0.0182
      9 C         140.4127  142.2248  166.8891 C.ar    1  UNL1       -0.0002
     10 C         140.1958  142.4022  165.4155 C.ar    1  UNL1        0.0144
     11 C         141.5654  140.9861  168.8607 C.3     1  UNL1        0.2827
     12 O         142.9799  141.4619  168.7098 O.3     1  UNL1       -0.3692
     13 H         143.4170  141.4562  169.5757 H       1  UNL1        0.2112
     14 C         141.7823  140.8087  170.3342 C.3     1  UNL1        0.4311
     15 F         141.9991  140.6313  171.8079 F       1  UNL1       -0.1669
     16 F         142.2220  139.3941  170.0992 F       1  UNL1       -0.1669
     17 F         141.5402  141.6250  170.5781 F       1  UNL1       -0.1669
     18 C         140.1509  140.5104  169.0116 C.3     1  UNL1        0.4311
     19 F         138.7363  140.0346  169.1625 F       1  UNL1       -0.1669
     20 F         140.2717  139.7023  168.6696 F       1  UNL1       -0.1669
     21 F         139.4400  141.6764  169.6322 F       1  UNL1       -0.1669
     22 C         139.6085  140.9113  160.7419 C.3     1  UNL1        0.1233
     23 C         141.3849  137.9701  157.8362 C.ar    1  UNL1        0.1056
     24 C         142.2213  138.5183  158.9541 C.ar    1  UNL1        0.0180
     25 C         141.6292  139.4987  159.9227 C.ar    1  UNL1       -0.0024
     26 C         140.2006  139.9309  159.7733 C.ar    1  UNL1       -0.0118
     27 C         139.3642  139.3827  158.6554 C.ar    1  UNL1       -0.0024
     28 C         139.9563  138.4023  157.6868 C.ar    1  UNL1        0.0180
     29 S         141.9770  136.9897  156.8676 S.O2    1  UNL1        0.0087
     30 O         140.8013  137.1803  155.9558 O.2     1  UNL1       -0.1686
     31 O         143.1528  136.7990  157.7794 O.2     1  UNL1       -0.1686
     32 C         144.0135  136.1190  155.5094 C.3     1  UNL1        0.0276
     33 C         142.5692  136.0092  155.8990 C.3     1  UNL1        0.1560
     34 C         138.7994  142.0691  160.2369 C.3     1  UNL1        0.1409
     35 N         139.3934  143.4463  160.2150 N.ar    1  UNL1       -0.2486
     36 C         140.0315  144.1126  159.0323 C.ar    1  UNL1        0.0967
     37 C         140.4860  145.4771  159.4583 C.ar    1  UNL1        0.0427
     38 C         140.1288  145.6542  160.9043 C.ar    1  UNL1        0.1217
     39 N         139.4535  144.3991  161.3721 N.ar    1  UNL1       -0.1676
@<TRIPOS>BOND
     1    32    33    1
     2    33    29    1
     3    29    30    2
     4    29    31    2
     5    29    23    1
     6    23    24   ar
     7    24    25   ar
     8    25    26   ar
     9    26    22    1
    10    22    34    1
    11    34    35    1
    12    35    36   ar
    13    36    37   ar
    14    37    38   ar
    15    38    39   ar
    16    22     1    1
    17     1     2    2
    18     1     3   am
    19     3     5    1
    20     5     6   ar
    21     6     7   ar
    22     7     8   ar
    23     8    11    1
    24    11    12    1
    25    11    14    1
    26    14    15    1
    27    14    16    1
    28    14    17    1
    29    11    18    1
    30    18    19    1
    31    18    20    1
    32    18    21    1
    33     8     9   ar
    34     9    10   ar
    35    26    27   ar
    36    27    28   ar
    37    28    23   ar
    38    39    35   ar
    39    10     5   ar
    40     3     4    1
    41    12    13    1
@<TRIPOS>MOLECULE
*****
 39 41 0 0 0
SMALL
GASTEIGER

@<TRIPOS>ATOM
      1 C         142.7104  138.7304  158.5526 C.2     1  UNL1        0.2317
      2 O         144.0517  139.1975  159.0352 O.2     1  UNL1       -0.2744
      3 N         141.5737  138.5858  159.5205 N.am    1  UNL1       -0.2836
      4 H         140.6934  138.2792  159.2038 H       1  UNL1        0.1549
      5 C         141.7782  138.9084  160.9711 C.ar    1  UNL1        0.0503
      6 C         141.7348  140.3339  161.4358 C.ar    1  UNL1        0.0144
      7 C         141.9393  140.6565  162.8863 C.ar    1  UNL1       -0.0002
      8 C         142.1873  139.5536  163.8722 C.ar    1  UNL1        0.0182
      9 C         142.2308  138.1280  163.4076 C.ar    1  UNL1       -0.0002
     10 C         142.0262  137.8054  161.9570 C.ar    1  UNL1        0.0144
     11 C         142.3918  139.8762  165.3228 C.3     1  UNL1        0.2827
     12 O         140.9792  140.3727  165.4115 O.3     1  UNL1       -0.3692
     13 H         140.7994  140.6764  166.3150 H       1  UNL1        0.2112
     14 C         142.5963  140.1988  166.7733 C.3     1  UNL1        0.4311
     15 F         142.8008  140.5214  168.2239 F       1  UNL1       -0.1669
     16 F         141.5744  139.1664  167.1470 F       1  UNL1       -0.1669
     17 F         143.2100  140.8271  166.6587 F       1  UNL1       -0.1669
     18 C         143.8044  139.3797  165.2340 C.3     1  UNL1        0.4311
     19 F         145.2172  138.8833  165.1452 F       1  UNL1       -0.1669
     20 F         144.1189  140.0380  164.7316 F       1  UNL1       -0.1669
     21 F         143.7942  138.1107  166.0337 F       1  UNL1       -0.1669
     22 C         142.5059  138.4078  157.1020 C.3     1  UNL1        0.1233
     23 C         141.9449  134.1356  155.8044 C.ar    1  UNL1        0.1056
     24 C         142.9850  134.4776  156.8296 C.ar    1  UNL1        0.0180
     25 C         143.1720  135.9017  157.2622 C.ar    1  UNL1       -0.0024
     26 C         142.3189  136.9837  156.6695 C.ar    1  UNL1       -0.0118
     27 C         141.2789  136.6418  155.6442 C.ar    1  UNL1       -0.0024
     28 C         141.0918  135.2177  155.2116 C.ar    1  UNL1        0.0180
     29 S         141.7579  132.7116  155.3718 S.O2    1  UNL1        0.0087
     30 O         141.2096  133.1828  154.0576 O.2     1  UNL1       -0.1686
     31 O         142.3062  132.2404  156.6861 O.2     1  UNL1       -0.1686
     32 C         141.4482  130.9564  153.4815 C.3     1  UNL1        0.0276
     33 C         141.5709  131.2875  154.9393 C.3     1  UNL1        0.1560
     34 C         142.4885  139.5093  156.0840 C.3     1  UNL1        0.1409
     35 N         143.7612  140.2151  155.7208 N.ar    1  UNL1       -0.2486
     36 C         143.8716  141.6044  155.1662 C.ar    1  UNL1        0.0967
     37 C         145.3257  141.9035  154.9510 C.ar    1  UNL1        0.0427
     38 C         146.1139  140.6990  155.3725 C.ar    1  UNL1        0.1217
     39 N         145.1471  139.6554  155.8483 N.ar    1  UNL1       -0.1676
@<TRIPOS>BOND
     1    32    33    1
     2    33    29    1
     3    29    30    2
     4    29    31    2
     5    29    23    1
     6    23    24   ar
     7    24    25   ar
     8    25    26   ar
     9    26    22    1
    10    22    34    1
    11    34    35    1
    12    35    36   ar
    13    36    37   ar
    14    37    38   ar
    15    38    39   ar
    16    22     1    1
    17     1     2    2
    18     1     3   am
    19     3     5    1
    20     5     6   ar
    21     6     7   ar
    22     7     8   ar
    23     8    11    1
    24    11    12    1
    25    11    14    1
    26    14    15    1
    27    14    16    1
    28    14    17    1
    29    11    18    1
    30    18    19    1
    31    18    20    1
    32    18    21    1
    33     8     9   ar
    34     9    10   ar
    35    26    27   ar
    36    27    28   ar
    37    28    23   ar
    38    39    35   ar
    39    10     5   ar
    40     3     4    1
    41    12    13    1
