@<TRIPOS>MOLECULE
*****
 29 32 0 0 0
SMALL
GASTEIGER

@<TRIPOS>ATOM
      1 C         142.3424  141.9213  167.8240 C.ar    1  UNL1        0.1491
      2 N         143.1353  142.7756  168.7682 N.ar    1  UNL1       -0.1977
      3 C         142.6843  142.9406  170.1892 C.ar    1  UNL1        0.2149
      4 N         143.4772  143.7949  171.1334 N.pl3   1  UNL1       -0.3274
      5 N         141.4402  142.2513  170.6661 N.ar    1  UNL1       -0.2124
      6 C         140.6473  141.3971  169.7218 C.ar    1  UNL1        0.1041
      7 C         139.3895  140.6005  169.9044 C.ar    1  UNL1        0.0394
      8 C         139.0632  139.9432  168.5961 C.ar    1  UNL1        0.0779
      9 N         140.1194  140.3335  167.6051 N.ar    1  UNL1       -0.3169
     10 C         141.0984  141.2321  168.3008 C.ar    1  UNL1        0.1101
     11 H         144.2937  144.2473  170.8205 H       1  UNL1        0.1452
     12 H         143.1811  143.9032  172.0661 H       1  UNL1        0.1452
     13 N         142.7936  141.7564  166.4030 N.pl3   1  UNL1       -0.3119
     14 H         142.4852  140.9847  165.8751 H       1  UNL1        0.1486
     15 C         143.7146  142.7670  165.7863 C.3     1  UNL1        0.1383
     16 C         140.6921  145.4826  162.4141 C.3     1  UNL1        0.0754
     17 C         141.8753  144.8140  163.0491 C.ar    1  UNL1        0.1546
     18 C         141.8727  144.0661  164.3493 C.ar    1  UNL1        0.0553
     19 C         143.2645  143.5658  164.5991 C.ar    1  UNL1        0.1201
     20 N         144.1274  144.0045  163.4533 N.ar    1  UNL1       -0.0800
     21 O         143.2687  144.7759  162.4953 O.2     1  UNL1       -0.3580
     22 C         140.1850  139.9012  166.1702 C.3     1  UNL1        0.1520
     23 C         139.2901  140.5431  165.1518 C.ar    1  UNL1        0.0827
     24 C         138.9815  142.0082  165.2419 C.ar    1  UNL1        0.0281
     25 C         138.0867  142.6502  164.2235 C.ar    1  UNL1        0.0605
     26 CL        137.7780  144.1154  164.3136 Cl      1  UNL1       -0.0822
     27 C         137.5004  141.8270  163.1151 C.ar    1  UNL1        0.0320
     28 C         137.8090  140.3618  163.0250 C.ar    1  UNL1        0.0994
     29 N         138.7039  139.7199  164.0434 N.ar    1  UNL1       -0.2462
@<TRIPOS>BOND
     1    16    17    1
     2    17    18   ar
     3    18    19   ar
     4    19    15    1
     5    15    13    1
     6    13     1    1
     7     1     2   ar
     8     2     3   ar
     9     3     4    1
    10     3     5   ar
    11     5     6   ar
    12     6     7   ar
    13     7     8   ar
    14     8     9   ar
    15     9    22    1
    16    22    23    1
    17    23    24   ar
    18    24    25   ar
    19    25    26    1
    20    25    27   ar
    21    27    28   ar
    22    28    29   ar
    23     9    10   ar
    24    19    20   ar
    25    20    21   ar
    26    21    17   ar
    27    10     1   ar
    28    10     6   ar
    29    29    23   ar
    30    13    14    1
    31     4    11    1
    32     4    12    1
@<TRIPOS>MOLECULE
*****
 29 32 0 0 0
SMALL
GASTEIGER

@<TRIPOS>ATOM
      1 C         139.7315  140.1931  167.3293 C.ar    1  UNL1        0.1491
      2 N         139.3339  139.7379  168.7021 N.ar    1  UNL1       -0.1977
      3 C         140.1887  140.0858  169.8845 C.ar    1  UNL1        0.2149
      4 N         139.7911  139.6305  171.2574 N.pl3   1  UNL1       -0.3274
      5 N         141.4413  140.8890  169.6942 N.ar    1  UNL1       -0.2124
      6 C         141.8388  141.3442  168.3213 C.ar    1  UNL1        0.1041
      7 C         143.0091  142.1427  167.8284 C.ar    1  UNL1        0.0394
      8 C         142.8774  142.2883  166.3413 C.ar    1  UNL1        0.0779
      9 N         141.6258  141.5798  165.9152 N.ar    1  UNL1       -0.3169
     10 C         140.9840  140.9963  167.1389 C.ar    1  UNL1        0.1101
     11 H         138.9691  139.1034  171.3824 H       1  UNL1        0.1452
     12 H         140.3522  139.8589  172.0335 H       1  UNL1        0.1452
     13 N         138.8766  139.8452  166.1469 N.pl3   1  UNL1       -0.3119
     14 H         138.3351  140.5412  165.7092 H       1  UNL1        0.1486
     15 C         138.8468  138.4369  165.6314 C.3     1  UNL1        0.1383
     16 C         139.4099  138.2658  160.3840 C.3     1  UNL1        0.0754
     17 C         139.6364  138.0491  161.8510 C.ar    1  UNL1        0.1546
     18 C         138.7868  138.5885  162.9634 C.ar    1  UNL1        0.0553
     19 C         139.3775  138.1278  164.2629 C.ar    1  UNL1        0.1201
     20 N         140.5922  137.3038  163.9537 N.ar    1  UNL1       -0.0800
     21 O         140.7521  137.2552  162.4631 O.2     1  UNL1       -0.3580
     22 C         141.1072  141.4734  164.5117 C.3     1  UNL1        0.1520
     23 C         140.0757  142.4440  164.0177 C.ar    1  UNL1        0.0827
     24 C         140.5031  143.7274  163.3696 C.ar    1  UNL1        0.0281
     25 C         139.4716  144.6980  162.8756 C.ar    1  UNL1        0.0605
     26 CL        139.8989  145.9814  162.2274 Cl      1  UNL1       -0.0822
     27 C         138.0127  144.3850  163.0298 C.ar    1  UNL1        0.0320
     28 C         137.5854  143.1016  163.6780 C.ar    1  UNL1        0.0994
     29 N         138.6168  142.1311  164.1719 N.ar    1  UNL1       -0.2462
@<TRIPOS>BOND
     1    16    17    1
     2    17    18   ar
     3    18    19   ar
     4    19    15    1
     5    15    13    1
     6    13     1    1
     7     1     2   ar
     8     2     3   ar
     9     3     4    1
    10     3     5   ar
    11     5     6   ar
    12     6     7   ar
    13     7     8   ar
    14     8     9   ar
    15     9    22    1
    16    22    23    1
    17    23    24   ar
    18    24    25   ar
    19    25    26    1
    20    25    27   ar
    21    27    28   ar
    22    28    29   ar
    23     9    10   ar
    24    19    20   ar
    25    20    21   ar
    26    21    17   ar
    27    10     1   ar
    28    10     6   ar
    29    29    23   ar
    30    13    14    1
    31     4    11    1
    32     4    12    1
@<TRIPOS>MOLECULE
*****
 29 32 0 0 0
SMALL
GASTEIGER

@<TRIPOS>ATOM
      1 C         141.2505  142.6046  162.3329 C.ar    1  UNL1        0.1491
      2 N         142.5653  143.3186  162.2258 N.ar    1  UNL1       -0.1977
      3 C         142.7566  144.6434  162.9024 C.ar    1  UNL1        0.2149
      4 N         144.0715  145.3575  162.7953 N.pl3   1  UNL1       -0.3274
      5 N         141.6331  145.2545  163.6863 N.ar    1  UNL1       -0.2124
      6 C         140.3183  144.5405  163.7935 C.ar    1  UNL1        0.1041
      7 C         139.0386  144.8934  164.4918 C.ar    1  UNL1        0.0394
      8 C         138.0564  143.7865  164.2467 C.ar    1  UNL1        0.0779
      9 N         138.7290  142.7496  163.3969 N.ar    1  UNL1       -0.3169
     10 C         140.1270  143.2155  163.1168 C.ar    1  UNL1        0.1101
     11 H         144.8089  144.9565  162.2808 H       1  UNL1        0.1452
     12 H         144.1971  146.2271  163.2394 H       1  UNL1        0.1452
     13 N         141.0593  141.2796  161.6562 N.pl3   1  UNL1       -0.3119
     14 H         140.1677  141.0167  161.3320 H       1  UNL1        0.1486
     15 C         142.2265  140.3554  161.4734 C.3     1  UNL1        0.1383
     16 C         143.6234  138.3334  166.1469 C.3     1  UNL1        0.0754
     17 C         143.6854  139.0059  164.8074 C.ar    1  UNL1        0.1546
     18 C         142.5286  139.2306  163.8794 C.ar    1  UNL1        0.0553
     19 C         143.0432  139.9352  162.6594 C.ar    1  UNL1        0.1201
     20 N         144.5181  140.1460  162.8333 N.ar    1  UNL1       -0.0800
     21 O         144.9149  139.5716  164.1610 O.2     1  UNL1       -0.3580
     22 C         138.1120  141.4711  162.9123 C.3     1  UNL1        0.1520
     23 C         138.3646  140.1896  163.6499 C.ar    1  UNL1        0.0827
     24 C         138.0251  140.0836  165.1070 C.ar    1  UNL1        0.0281
     25 C         138.2776  138.8021  165.8447 C.ar    1  UNL1        0.0605
     26 CL        137.9381  138.6960  167.3019 Cl      1  UNL1       -0.0822
     27 C         138.8698  137.6267  165.1250 C.ar    1  UNL1        0.0320
     28 C         139.2094  137.7328  163.6678 C.ar    1  UNL1        0.0994
     29 N         138.9568  139.0142  162.9303 N.ar    1  UNL1       -0.2462
@<TRIPOS>BOND
     1    16    17    1
     2    17    18   ar
     3    18    19   ar
     4    19    15    1
     5    15    13    1
     6    13     1    1
     7     1     2   ar
     8     2     3   ar
     9     3     4    1
    10     3     5   ar
    11     5     6   ar
    12     6     7   ar
    13     7     8   ar
    14     8     9   ar
    15     9    22    1
    16    22    23    1
    17    23    24   ar
    18    24    25   ar
    19    25    26    1
    20    25    27   ar
    21    27    28   ar
    22    28    29   ar
    23     9    10   ar
    24    19    20   ar
    25    20    21   ar
    26    21    17   ar
    27    10     1   ar
    28    10     6   ar
    29    29    23   ar
    30    13    14    1
    31     4    11    1
    32     4    12    1
@<TRIPOS>MOLECULE
*****
 29 32 0 0 0
SMALL
GASTEIGER

@<TRIPOS>ATOM
      1 C         144.1934  139.4015  162.9009 C.ar    1  UNL1        0.1491
      2 N         144.3874  139.5916  161.4257 N.ar    1  UNL1       -0.1977
      3 C         143.4281  138.9671  160.4565 C.ar    1  UNL1        0.2149
      4 N         143.6221  139.1572  158.9812 N.pl3   1  UNL1       -0.3274
      5 N         142.2747  138.1523  160.9624 N.ar    1  UNL1       -0.2124
      6 C         142.0807  137.9621  162.4376 C.ar    1  UNL1        0.1041
      7 C         141.0445  137.2173  163.2258 C.ar    1  UNL1        0.0394
      8 C         141.3634  137.3816  164.6823 C.ar    1  UNL1        0.0779
      9 N         142.5968  138.2279  164.7942 N.ar    1  UNL1       -0.3169
     10 C         143.0401  138.5867  163.4068 C.ar    1  UNL1        0.1101
     11 H         144.3790  139.6920  158.6492 H       1  UNL1        0.1452
     12 H         142.9924  138.7473  158.3451 H       1  UNL1        0.1452
     13 N         145.1528  140.0261  163.8702 N.pl3   1  UNL1       -0.3119
     14 H         145.4084  139.5440  164.6896 H       1  UNL1        0.1486
     15 C         145.7228  141.3852  163.5909 C.3     1  UNL1        0.1383
     16 C         142.1695  145.2825  163.8477 C.3     1  UNL1        0.0754
     17 C         143.1809  144.3063  163.3241 C.ar    1  UNL1        0.1546
     18 C         143.8999  143.2646  164.1291 C.ar    1  UNL1        0.0553
     19 C         144.8141  142.5149  163.2061 C.ar    1  UNL1        0.1201
     20 N         144.6602  143.0932  161.8306 N.ar    1  UNL1       -0.0800
     21 O         143.6508  144.2004  161.9036 O.2     1  UNL1       -0.3580
     22 C         143.2688  138.6427  166.0695 C.3     1  UNL1        0.1520
     23 C         142.6943  139.7581  166.8916 C.ar    1  UNL1        0.0827
     24 C         141.9054  140.8484  166.2294 C.ar    1  UNL1        0.0281
     25 C         141.3310  141.9639  167.0514 C.ar    1  UNL1        0.0605
     26 CL        140.5420  143.0543  166.3892 Cl      1  UNL1       -0.0822
     27 C         141.5455  141.9888  168.5359 C.ar    1  UNL1        0.0320
     28 C         142.3344  140.8984  169.1981 C.ar    1  UNL1        0.0994
     29 N         142.9088  139.7831  168.3760 N.ar    1  UNL1       -0.2462
@<TRIPOS>BOND
     1    16    17    1
     2    17    18   ar
     3    18    19   ar
     4    19    15    1
     5    15    13    1
     6    13     1    1
     7     1     2   ar
     8     2     3   ar
     9     3     4    1
    10     3     5   ar
    11     5     6   ar
    12     6     7   ar
    13     7     8   ar
    14     8     9   ar
    15     9    22    1
    16    22    23    1
    17    23    24   ar
    18    24    25   ar
    19    25    26    1
    20    25    27   ar
    21    27    28   ar
    22    28    29   ar
    23     9    10   ar
    24    19    20   ar
    25    20    21   ar
    26    21    17   ar
    27    10     1   ar
    28    10     6   ar
    29    29    23   ar
    30    13    14    1
    31     4    11    1
    32     4    12    1
@<TRIPOS>MOLECULE
*****
 29 32 0 0 0
SMALL
GASTEIGER

@<TRIPOS>ATOM
      1 C         139.9475  139.9639  167.3221 C.ar    1  UNL1        0.1491
      2 N         138.8507  139.6230  168.2869 N.ar    1  UNL1       -0.1977
      3 C         138.8779  140.1782  169.6800 C.ar    1  UNL1        0.2149
      4 N         137.7810  139.8373  170.6448 N.pl3   1  UNL1       -0.3274
      5 N         140.0019  141.0744  170.1085 N.ar    1  UNL1       -0.2124
      6 C         141.0987  141.4153  169.1437 C.ar    1  UNL1        0.1041
      7 C         142.3265  142.2661  169.2798 C.ar    1  UNL1        0.0394
      8 C         143.0582  142.2367  167.9707 C.ar    1  UNL1        0.0779
      9 N         142.2826  141.3677  167.0256 N.ar    1  UNL1       -0.3169
     10 C         141.0715  140.8600  167.7506 C.ar    1  UNL1        0.1101
     11 H         137.0433  139.2491  170.3636 H       1  UNL1        0.1452
     12 H         137.7988  140.2017  171.5592 H       1  UNL1        0.1452
     13 N         139.9204  139.4086  165.9290 N.pl3   1  UNL1       -0.3119
     14 H         140.7534  139.0967  165.5070 H       1  UNL1        0.1486
     15 C         138.6240  139.3286  165.1786 C.3     1  UNL1        0.1383
     16 C         137.6982  144.1872  163.3299 C.3     1  UNL1        0.0754
     17 C         137.7758  142.6931  163.4392 C.ar    1  UNL1        0.1546
     18 C         138.3168  141.9214  164.6062 C.ar    1  UNL1        0.0553
     19 C         138.2013  140.4600  164.2890 C.ar    1  UNL1        0.1201
     20 N         137.5890  140.3284  162.9261 N.ar    1  UNL1       -0.0800
     21 O         137.3260  141.7086  162.4009 O.2     1  UNL1       -0.3580
     22 C         142.6530  141.0603  165.6049 C.3     1  UNL1        0.1520
     23 C         142.9573  142.1770  164.6507 C.ar    1  UNL1        0.0827
     24 C         141.9923  143.3148  164.4956 C.ar    1  UNL1        0.0281
     25 C         142.2965  144.4316  163.5415 C.ar    1  UNL1        0.0605
     26 CL        141.3316  145.5694  163.3864 Cl      1  UNL1       -0.0822
     27 C         143.5659  144.4104  162.7425 C.ar    1  UNL1        0.0320
     28 C         144.5309  143.2725  162.8976 C.ar    1  UNL1        0.0994
     29 N         144.2266  142.1559  163.8517 N.ar    1  UNL1       -0.2462
@<TRIPOS>BOND
     1    16    17    1
     2    17    18   ar
     3    18    19   ar
     4    19    15    1
     5    15    13    1
     6    13     1    1
     7     1     2   ar
     8     2     3   ar
     9     3     4    1
    10     3     5   ar
    11     5     6   ar
    12     6     7   ar
    13     7     8   ar
    14     8     9   ar
    15     9    22    1
    16    22    23    1
    17    23    24   ar
    18    24    25   ar
    19    25    26    1
    20    25    27   ar
    21    27    28   ar
    22    28    29   ar
    23     9    10   ar
    24    19    20   ar
    25    20    21   ar
    26    21    17   ar
    27    10     1   ar
    28    10     6   ar
    29    29    23   ar
    30    13    14    1
    31     4    11    1
    32     4    12    1
@<TRIPOS>MOLECULE
*****
 29 32 0 0 0
SMALL
GASTEIGER

@<TRIPOS>ATOM
      1 C         138.9731  140.4092  165.4276 C.ar    1  UNL1        0.1491
      2 N         138.0632  139.2526  165.7181 N.ar    1  UNL1       -0.1977
      3 C         137.9434  138.7257  167.1173 C.ar    1  UNL1        0.2149
      4 N         137.0335  137.5690  167.4078 N.pl3   1  UNL1       -0.3274
      5 N         138.7334  139.3554  168.2262 N.ar    1  UNL1       -0.2124
      6 C         139.6432  140.5120  167.9357 C.ar    1  UNL1        0.1041
      7 C         140.5395  141.3300  168.8174 C.ar    1  UNL1        0.0394
      8 C         141.2133  142.3625  167.9630 C.ar    1  UNL1        0.0779
      9 N         140.7334  142.1826  166.5533 N.ar    1  UNL1       -0.3169
     10 C         139.7630  141.0389  166.5364 C.ar    1  UNL1        0.1101
     11 H         136.5150  137.1557  166.6801 H       1  UNL1        0.1452
     12 H         136.9548  137.2231  168.3262 H       1  UNL1        0.1452
     13 N         139.0929  140.9361  164.0283 N.pl3   1  UNL1       -0.3119
     14 H         139.8400  140.6473  163.4558 H       1  UNL1        0.1486
     15 C         138.0746  141.9031  163.5012 C.3     1  UNL1        0.1383
     16 C         140.8734  145.2744  160.5547 C.3     1  UNL1        0.0754
     17 C         139.8054  144.6960  161.4350 C.ar    1  UNL1        0.1546
     18 C         139.7552  143.2888  161.9520 C.ar    1  UNL1        0.0553
     19 C         138.5190  143.1464  162.7894 C.ar    1  UNL1        0.1201
     20 N         137.8050  144.4656  162.7900 N.ar    1  UNL1       -0.0800
     21 O         138.6001  145.4233  161.9529 O.2     1  UNL1       -0.3580
     22 C         141.1507  143.0025  165.3685 C.3     1  UNL1        0.1520
     23 C         142.4507  142.7148  164.6777 C.ar    1  UNL1        0.0827
     24 C         143.1275  141.3907  164.8743 C.ar    1  UNL1        0.0281
     25 C         144.4275  141.1029  164.1836 C.ar    1  UNL1        0.0605
     26 CL        145.1043  139.7788  164.3801 Cl      1  UNL1       -0.0822
     27 C         145.0507  142.1394  163.2962 C.ar    1  UNL1        0.0320
     28 C         144.3739  143.4636  163.0997 C.ar    1  UNL1        0.0994
     29 N         143.0740  143.7512  163.7904 N.ar    1  UNL1       -0.2462
@<TRIPOS>BOND
     1    16    17    1
     2    17    18   ar
     3    18    19   ar
     4    19    15    1
     5    15    13    1
     6    13     1    1
     7     1     2   ar
     8     2     3   ar
     9     3     4    1
    10     3     5   ar
    11     5     6   ar
    12     6     7   ar
    13     7     8   ar
    14     8     9   ar
    15     9    22    1
    16    22    23    1
    17    23    24   ar
    18    24    25   ar
    19    25    26    1
    20    25    27   ar
    21    27    28   ar
    22    28    29   ar
    23     9    10   ar
    24    19    20   ar
    25    20    21   ar
    26    21    17   ar
    27    10     1   ar
    28    10     6   ar
    29    29    23   ar
    30    13    14    1
    31     4    11    1
    32     4    12    1
@<TRIPOS>MOLECULE
*****
 29 32 0 0 0
SMALL
GASTEIGER

@<TRIPOS>ATOM
      1 C         140.6560  144.0033  163.8885 C.ar    1  UNL1        0.1491
      2 N         140.5357  145.2089  163.0041 N.ar    1  UNL1       -0.1977
      3 C         139.3104  145.4011  162.1607 C.ar    1  UNL1        0.2149
      4 N         139.1901  146.6067  161.2763 N.pl3   1  UNL1       -0.3274
      5 N         138.2050  144.3878  162.2018 N.ar    1  UNL1       -0.2124
      6 C         138.3253  143.1823  163.0862 C.ar    1  UNL1        0.1041
      7 C         137.4057  142.0234  163.3337 C.ar    1  UNL1        0.0394
      8 C         138.0628  141.1149  164.3301 C.ar    1  UNL1        0.0779
      9 N         139.3885  141.7123  164.6983 N.ar    1  UNL1       -0.3169
     10 C         139.5507  142.9901  163.9295 C.ar    1  UNL1        0.1101
     11 H         139.9155  147.2718  161.2493 H       1  UNL1        0.1452
     12 H         138.3858  146.7329  160.7227 H       1  UNL1        0.1452
     13 N         141.8814  143.8111  164.7319 N.pl3   1  UNL1       -0.3119
     14 H         141.7928  143.6433  165.6979 H       1  UNL1        0.1486
     15 C         143.2419  143.8745  164.1034 C.3     1  UNL1        0.1383
     16 C         143.9439  139.0427  162.0928 C.3     1  UNL1        0.0754
     17 C         144.2136  140.4017  162.6679 C.ar    1  UNL1        0.1546
     18 C         143.1786  141.4104  163.0694 C.ar    1  UNL1        0.0553
     19 C         143.8909  142.6225  163.5920 C.ar    1  UNL1        0.1201
     20 N         145.3662  142.3630  163.5135 N.ar    1  UNL1       -0.0800
     21 O         145.5656  140.9904  162.9423 O.2     1  UNL1       -0.3580
     22 C         140.3782  141.1335  165.6655 C.3     1  UNL1        0.1520
     23 C         140.1727  141.3047  167.1415 C.ar    1  UNL1        0.0827
     24 C         140.4872  142.6176  167.7952 C.ar    1  UNL1        0.0281
     25 C         140.2817  142.7888  169.2712 C.ar    1  UNL1        0.0605
     26 CL        140.5962  144.1017  169.9249 Cl      1  UNL1       -0.0822
     27 C         139.7615  141.6471  170.0934 C.ar    1  UNL1        0.0320
     28 C         139.4470  140.3342  169.4396 C.ar    1  UNL1        0.0994
     29 N         139.6525  140.1631  167.9637 N.ar    1  UNL1       -0.2462
@<TRIPOS>BOND
     1    16    17    1
     2    17    18   ar
     3    18    19   ar
     4    19    15    1
     5    15    13    1
     6    13     1    1
     7     1     2   ar
     8     2     3   ar
     9     3     4    1
    10     3     5   ar
    11     5     6   ar
    12     6     7   ar
    13     7     8   ar
    14     8     9   ar
    15     9    22    1
    16    22    23    1
    17    23    24   ar
    18    24    25   ar
    19    25    26    1
    20    25    27   ar
    21    27    28   ar
    22    28    29   ar
    23     9    10   ar
    24    19    20   ar
    25    20    21   ar
    26    21    17   ar
    27    10     1   ar
    28    10     6   ar
    29    29    23   ar
    30    13    14    1
    31     4    11    1
    32     4    12    1
@<TRIPOS>MOLECULE
*****
 29 32 0 0 0
SMALL
GASTEIGER

@<TRIPOS>ATOM
      1 C         137.7673  140.3008  162.6413 C.ar    1  UNL1        0.1491
      2 N         137.6845  140.4798  161.1544 N.ar    1  UNL1       -0.1977
      3 C         138.4630  139.5756  160.2455 C.ar    1  UNL1        0.2149
      4 N         138.3802  139.7547  158.7585 N.pl3   1  UNL1       -0.3274
      5 N         139.3245  138.4922  160.8236 N.ar    1  UNL1       -0.2124
      6 C         139.4074  138.3131  162.3105 C.ar    1  UNL1        0.1041
      7 C         140.1665  137.3404  163.1635 C.ar    1  UNL1        0.0394
      8 C         139.8570  137.6436  164.5996 C.ar    1  UNL1        0.0779
      9 N         138.9067  138.8036  164.6342 N.ar    1  UNL1       -0.3169
     10 C         138.6288  139.2174  163.2194 C.ar    1  UNL1        0.1101
     11 H         137.8148  140.4658  158.3791 H       1  UNL1        0.1452
     12 H         138.8912  139.1612  158.1620 H       1  UNL1        0.1452
     13 N         136.9887  141.2051  163.5502 N.pl3   1  UNL1       -0.3119
     14 H         136.0467  141.0049  163.7547 H       1  UNL1        0.1486
     15 C         137.6454  142.4143  164.1474 C.3     1  UNL1        0.1383
     16 C         141.5439  144.7107  161.4255 C.3     1  UNL1        0.0754
     17 C         140.1974  144.4203  162.0195 C.ar    1  UNL1        0.1546
     18 C         139.8590  143.2647  162.9140 C.ar    1  UNL1        0.0553
     19 C         138.4056  143.3648  163.2706 C.ar    1  UNL1        0.1201
     20 N         137.8456  144.5822  162.5966 N.ar    1  UNL1       -0.0800
     21 O         138.9531  145.2345  161.8234 O.2     1  UNL1       -0.3580
     22 C         138.3347  139.4384  165.8670 C.3     1  UNL1        0.1520
     23 C         139.2496  139.9847  166.9227 C.ar    1  UNL1        0.0827
     24 C         140.4153  140.8444  166.5332 C.ar    1  UNL1        0.0281
     25 C         141.3302  141.3907  167.5888 C.ar    1  UNL1        0.0605
     26 CL        142.4960  142.2505  167.1993 Cl      1  UNL1       -0.0822
     27 C         141.0793  141.0773  169.0342 C.ar    1  UNL1        0.0320
     28 C         139.9135  140.2175  169.4237 C.ar    1  UNL1        0.0994
     29 N         138.9987  139.6712  168.3680 N.ar    1  UNL1       -0.2462
@<TRIPOS>BOND
     1    16    17    1
     2    17    18   ar
     3    18    19   ar
     4    19    15    1
     5    15    13    1
     6    13     1    1
     7     1     2   ar
     8     2     3   ar
     9     3     4    1
    10     3     5   ar
    11     5     6   ar
    12     6     7   ar
    13     7     8   ar
    14     8     9   ar
    15     9    22    1
    16    22    23    1
    17    23    24   ar
    18    24    25   ar
    19    25    26    1
    20    25    27   ar
    21    27    28   ar
    22    28    29   ar
    23     9    10   ar
    24    19    20   ar
    25    20    21   ar
    26    21    17   ar
    27    10     1   ar
    28    10     6   ar
    29    29    23   ar
    30    13    14    1
    31     4    11    1
    32     4    12    1
@<TRIPOS>MOLECULE
*****
 29 32 0 0 0
SMALL
GASTEIGER

@<TRIPOS>ATOM
      1 C         139.6702  143.8510  163.9739 C.ar    1  UNL1        0.1491
      2 N         138.9808  144.8717  163.1178 N.ar    1  UNL1       -0.1977
      3 C         139.7568  145.6281  162.0807 C.ar    1  UNL1        0.2149
      4 N         139.0673  146.6488  161.2245 N.pl3   1  UNL1       -0.3274
      5 N         141.2222  145.3639  161.8996 N.ar    1  UNL1       -0.2124
      6 C         141.9116  144.3432  162.7558 C.ar    1  UNL1        0.1041
      7 C         143.3346  143.8715  162.8060 C.ar    1  UNL1        0.0394
      8 C         143.4381  142.8235  163.8742 C.ar    1  UNL1        0.0779
      9 N         142.0790  142.6476  164.4841 N.ar    1  UNL1       -0.3169
     10 C         141.1356  143.5868  163.7929 C.ar    1  UNL1        0.1101
     11 H         138.1055  146.8222  161.3433 H       1  UNL1        0.1452
     12 H         139.5766  147.1452  160.5438 H       1  UNL1        0.1452
     13 N         138.8942  143.0946  165.0111 N.pl3   1  UNL1       -0.3119
     14 H         139.0225  143.2963  165.9661 H       1  UNL1        0.1486
     15 C         137.9227  142.0310  164.5931 C.3     1  UNL1        0.1383
     16 C         140.1084  137.4746  163.0624 C.3     1  UNL1        0.0754
     17 C         139.3562  138.4996  163.8584 C.ar    1  UNL1        0.1546
     18 C         139.1614  139.9387  163.4828 C.ar    1  UNL1        0.0553
     19 C         138.3515  140.5939  164.5619 C.ar    1  UNL1        0.1201
     20 N         138.0458  139.5598  165.6046 N.ar    1  UNL1       -0.0800
     21 O         138.6667  138.2655  165.1698 O.2     1  UNL1       -0.3580
     22 C         141.7255  141.6989  165.5910 C.3     1  UNL1        0.1520
     23 C         141.7406  142.1692  167.0153 C.ar    1  UNL1        0.0827
     24 C         143.0032  142.0823  167.8203 C.ar    1  UNL1        0.0281
     25 C         143.0185  142.5525  169.2446 C.ar    1  UNL1        0.0605
     26 CL        144.2811  142.4656  170.0498 Cl      1  UNL1       -0.0822
     27 C         141.7709  143.1096  169.8638 C.ar    1  UNL1        0.0320
     28 C         140.5083  143.1965  169.0587 C.ar    1  UNL1        0.0994
     29 N         140.4932  142.7263  167.6345 N.ar    1  UNL1       -0.2462
@<TRIPOS>BOND
     1    16    17    1
     2    17    18   ar
     3    18    19   ar
     4    19    15    1
     5    15    13    1
     6    13     1    1
     7     1     2   ar
     8     2     3   ar
     9     3     4    1
    10     3     5   ar
    11     5     6   ar
    12     6     7   ar
    13     7     8   ar
    14     8     9   ar
    15     9    22    1
    16    22    23    1
    17    23    24   ar
    18    24    25   ar
    19    25    26    1
    20    25    27   ar
    21    27    28   ar
    22    28    29   ar
    23     9    10   ar
    24    19    20   ar
    25    20    21   ar
    26    21    17   ar
    27    10     1   ar
    28    10     6   ar
    29    29    23   ar
    30    13    14    1
    31     4    11    1
    32     4    12    1
