@<TRIPOS>MOLECULE
*****
 40 46 0 0 0
SMALL
GASTEIGER

@<TRIPOS>ATOM
      1 C         140.0968  141.9086  161.0402 C.3     1  UNL1        0.1559
      2 N         140.8275  141.2649  159.8992 N.3     1  UNL1       -0.2809
      3 C         141.1189  139.7938  159.9298 C.3     1  UNL1        0.1166
      4 C         140.6796  138.9664  161.1013 C.3     1  UNL1        0.0511
      5 C         139.9489  139.6100  162.2422 C.2     1  UNL1       -0.0037
      6 C         139.6575  141.0811  162.2116 C.2     1  UNL1        0.0784
      7 N         138.9250  141.4347  163.4719 N.2     1  UNL1       -0.2519
      8 C         138.7637  140.1822  164.2814 C.2     1  UNL1        0.0627
      9 C         138.1223  139.9229  165.6123 C.3     1  UNL1        0.0717
     10 C         138.1137  138.5359  166.1832 C.2     1  UNL1       -0.0198
     11 C         138.7466  137.4081  165.4231 C.2     1  UNL1       -0.0042
     12 C         139.3879  137.6674  164.0922 C.2     1  UNL1        0.0006
     13 C         139.3965  139.0545  163.5213 C.2     1  UNL1        0.0111
     14 H         141.7258  141.7414  159.8186 H       1  UNL1        0.1245
     15 C         139.4394  142.9673  161.8750 C.ar    1  UNL1        0.2058
     16 N         138.0632  143.5263  161.6665 N.ar    1  UNL1       -0.0548
     17 O         137.8161  144.5574  162.7276 O.2     1  UNL1       -0.2966
     18 C         139.0395  144.6355  163.5919 C.ar    1  UNL1        0.4165
     19 O         139.2268  145.5379  164.7754 O.3     1  UNL1       -0.4640
     20 N         140.0428  143.6527  163.0650 N.ar    1  UNL1       -0.1557
     21 H         138.5408  146.1222  165.0322 H       1  UNL1        0.2970
     22 C         139.7227  145.3135  157.0218 C.3     1  UNL1        0.1537
     23 N         140.1359  144.6688  158.3116 N.ar    1  UNL1       -0.2476
     24 C         139.6282  143.3626  158.8468 C.ar    1  UNL1        0.0944
     25 C         140.3078  143.1037  160.1587 C.ar    1  UNL1        0.0423
     26 C         141.2355  144.2498  160.4343 C.ar    1  UNL1        0.1194
     27 N         141.1292  145.2171  159.2927 N.ar    1  UNL1       -0.1679
     28 C         141.8497  139.1501  158.7888 C.ar    1  UNL1        0.1319
     29 N         141.7228  137.7197  158.3555 N.ar    1  UNL1       -0.2282
     30 C         142.6303  137.5093  157.1798 C.ar    1  UNL1        0.1171
     31 C         143.3179  138.8097  156.8865 C.ar    1  UNL1        0.0942
     32 N         142.8354  139.8238  157.8809 N.ar    1  UNL1       -0.3385
     33 H         143.1165  140.7661  157.9292 H       1  UNL1        0.1672
     34 C         142.8172  136.2241  156.4292 C.ar    1  UNL1        0.1006
     35 C         142.4726  136.1502  154.9712 C.ar    1  UNL1        0.0230
     36 C         142.6596  134.8650  154.2206 C.ar    1  UNL1        0.0328
     37 C         143.1911  133.6539  154.9280 C.ar    1  UNL1        0.1592
     38 F         143.3781  132.3686  154.1774 F       1  UNL1       -0.2025
     39 C         143.5357  133.7278  156.3860 C.ar    1  UNL1        0.1284
     40 N         143.3488  135.0129  157.1366 N.ar    1  UNL1       -0.2399
@<TRIPOS>BOND
     1    22    23    1
     2    23    24   ar
     3    24    25   ar
     4     1    25    1
     5     1    15    1
     6    15    16   ar
     7    16    17   ar
     8    17    18   ar
     9    18    19    1
    10    18    20   ar
    11     1     2    1
    12     2     3    1
    13     3    28    1
    14    28    29   ar
    15    29    30   ar
    16    30    34    1
    17    34    35   ar
    18    35    36   ar
    19    36    37   ar
    20    37    38    1
    21    37    39   ar
    22    39    40   ar
    23    30    31   ar
    24    31    32   ar
    25     3     4    1
    26     4     5    1
    27     5     6    2
    28     6     7    1
    29     7     8    2
    30     8     9    1
    31     9    10    1
    32    10    11    2
    33    11    12    1
    34    12    13    2
    35    25    26   ar
    36    26    27   ar
    37    27    23   ar
    38     6     1    1
    39    13     8    1
    40    20    15   ar
    41    32    28   ar
    42    13     5    1
    43    40    34   ar
    44    19    21    1
    45     2    14    1
    46    32    33    1
@<TRIPOS>MOLECULE
*****
 40 46 0 0 0
SMALL
GASTEIGER

@<TRIPOS>ATOM
      1 C         139.3841  140.6322  164.3169 C.3     1  UNL1        0.1559
      2 N         139.4867  141.7104  163.2792 N.3     1  UNL1       -0.2809
      3 C         139.8293  143.1129  163.6863 C.3     1  UNL1        0.1166
      4 C         140.0694  143.4371  165.1310 C.3     1  UNL1        0.0511
      5 C         139.9668  142.3589  166.1687 C.2     1  UNL1       -0.0037
      6 C         139.6242  140.9564  165.7617 C.2     1  UNL1        0.0784
      7 N         139.5938  140.1090  166.9990 N.2     1  UNL1       -0.2519
      8 C         139.9176  140.9878  168.1707 C.2     1  UNL1        0.0627
      9 C         140.0323  140.7014  169.6386 C.3     1  UNL1        0.0717
     10 C         140.3775  141.8055  170.5934 C.2     1  UNL1       -0.0198
     11 C         140.6080  143.1961  170.0803 C.2     1  UNL1       -0.0042
     12 C         140.4933  143.4824  168.6124 C.2     1  UNL1        0.0006
     13 C         140.1481  142.3783  167.6576 C.2     1  UNL1        0.0111
     14 H         138.5829  141.7529  162.8084 H       1  UNL1        0.1245
     15 C         139.1727  139.2780  164.9265 C.ar    1  UNL1        0.2058
     16 N         140.0825  138.0943  164.7819 N.ar    1  UNL1       -0.0548
     17 O         139.4863  136.9545  165.5537 O.2     1  UNL1       -0.2966
     18 C         138.2081  137.4339  166.1752 C.ar    1  UNL1        0.4165
     19 O         137.2857  136.6202  167.0337 O.3     1  UNL1       -0.4640
     20 N         138.0143  138.8699  165.7875 N.ar    1  UNL1       -0.1557
     21 H         137.4897  135.7256  167.2236 H       1  UNL1        0.2970
     22 C         139.8490  138.2292  159.6382 C.3     1  UNL1        0.1537
     23 N         139.2843  138.7331  160.9333 N.ar    1  UNL1       -0.2476
     24 C         140.0127  139.5619  161.9496 C.ar    1  UNL1        0.0944
     25 C         139.0707  139.8376  163.0839 C.ar    1  UNL1        0.0423
     26 C         137.7602  139.1794  162.7686 C.ar    1  UNL1        0.1194
     27 N         137.8923  138.4967  161.4395 N.ar    1  UNL1       -0.1679
     28 C         139.9319  144.1912  162.6485 C.ar    1  UNL1        0.1319
     29 N         140.2505  143.9901  161.1967 N.ar    1  UNL1       -0.2282
     30 C         140.2495  145.3344  160.5313 C.ar    1  UNL1        0.1171
     31 C         139.9302  146.3664  161.5720 C.ar    1  UNL1        0.0942
     32 N         139.7340  145.6598  162.8805 N.ar    1  UNL1       -0.3385
     33 H         139.5139  146.0853  163.7406 H       1  UNL1        0.1672
     34 C         140.5201  145.6002  159.0800 C.ar    1  UNL1        0.1006
     35 C         141.7950  145.1174  158.4542 C.ar    1  UNL1        0.0230
     36 C         142.0657  145.3831  157.0030 C.ar    1  UNL1        0.0328
     37 C         141.0616  146.1315  156.1776 C.ar    1  UNL1        0.1592
     38 F         141.3322  146.3973  154.7263 F       1  UNL1       -0.2025
     39 C         139.7867  146.6143  156.8034 C.ar    1  UNL1        0.1284
     40 N         139.5160  146.3486  158.2546 N.ar    1  UNL1       -0.2399
@<TRIPOS>BOND
     1    22    23    1
     2    23    24   ar
     3    24    25   ar
     4     1    25    1
     5     1    15    1
     6    15    16   ar
     7    16    17   ar
     8    17    18   ar
     9    18    19    1
    10    18    20   ar
    11     1     2    1
    12     2     3    1
    13     3    28    1
    14    28    29   ar
    15    29    30   ar
    16    30    34    1
    17    34    35   ar
    18    35    36   ar
    19    36    37   ar
    20    37    38    1
    21    37    39   ar
    22    39    40   ar
    23    30    31   ar
    24    31    32   ar
    25     3     4    1
    26     4     5    1
    27     5     6    2
    28     6     7    1
    29     7     8    2
    30     8     9    1
    31     9    10    1
    32    10    11    2
    33    11    12    1
    34    12    13    2
    35    25    26   ar
    36    26    27   ar
    37    27    23   ar
    38     6     1    1
    39    13     8    1
    40    20    15   ar
    41    32    28   ar
    42    13     5    1
    43    40    34   ar
    44    19    21    1
    45     2    14    1
    46    32    33    1
@<TRIPOS>MOLECULE
*****
 40 46 0 0 0
SMALL
GASTEIGER

@<TRIPOS>ATOM
      1 C         141.5186  140.9269  159.9953 C.3     1  UNL1        0.1559
      2 N         140.9991  141.8000  158.8918 N.3     1  UNL1       -0.2809
      3 C         141.1306  143.2910  158.9902 C.3     1  UNL1        0.1166
      4 C         141.7818  143.9088  160.1920 C.3     1  UNL1        0.0511
      5 C         142.3014  143.0357  161.2954 C.2     1  UNL1       -0.0037
      6 C         142.1698  141.5447  161.1971 C.2     1  UNL1        0.0784
      7 N         142.7721  140.9438  162.4325 N.2     1  UNL1       -0.2519
      8 C         143.2758  142.0634  163.2943 C.2     1  UNL1        0.0627
      9 C         143.9618  142.0726  164.6282 C.3     1  UNL1        0.0717
     10 C         144.3569  143.3747  165.2593 C.2     1  UNL1       -0.0198
     11 C         144.0661  144.6676  164.5566 C.2     1  UNL1       -0.0042
     12 C         143.3801  144.6584  163.2227 C.2     1  UNL1        0.0006
     13 C         142.9850  143.3563  162.5916 C.2     1  UNL1        0.0111
     14 H         140.0035  141.5977  158.8003 H       1  UNL1        0.1245
     15 C         141.8524  139.6900  160.7755 C.ar    1  UNL1        0.2058
     16 N         143.1828  138.9980  160.8046 N.ar    1  UNL1       -0.0548
     17 O         143.0668  137.8083  161.7108 O.2     1  UNL1       -0.2966
     18 C         141.6647  137.7650  162.2417 C.ar    1  UNL1        0.4165
     19 O         141.1104  136.7389  163.1851 O.3     1  UNL1       -0.4640
     20 N         140.9140  138.9280  161.6637 N.ar    1  UNL1       -0.1557
     21 H         141.6571  136.0440  163.4954 H       1  UNL1        0.2970
     22 C         141.2465  137.0666  156.4029 C.3     1  UNL1        0.1537
     23 N         140.8582  138.1051  157.4133 N.ar    1  UNL1       -0.2476
     24 C         141.7992  139.0008  158.1632 C.ar    1  UNL1        0.0944
     25 C         140.9834  139.8795  159.0645 C.ar    1  UNL1        0.0423
     26 C         139.5382  139.5269  158.8716 C.ar    1  UNL1        0.1194
     27 N         139.4609  138.4302  157.8510 N.ar    1  UNL1       -0.1679
     28 C         140.6110  144.1642  157.8867 C.ar    1  UNL1        0.1319
     29 N         140.3018  145.6282  157.9924 N.ar    1  UNL1       -0.2282
     30 C         139.8091  146.0955  156.6549 C.ar    1  UNL1        0.1171
     31 C         139.8139  144.9204  155.7227 C.ar    1  UNL1        0.0942
     32 N         140.3095  143.7268  156.4840 N.ar    1  UNL1       -0.3385
     33 H         140.4178  142.8161  156.1259 H       1  UNL1        0.1672
     34 C         139.3860  147.4928  156.3101 C.ar    1  UNL1        0.1006
     35 C         139.7152  148.0654  154.9634 C.ar    1  UNL1        0.0230
     36 C         139.2921  149.4625  154.6187 C.ar    1  UNL1        0.0328
     37 C         138.5397  150.2871  155.6207 C.ar    1  UNL1        0.1592
     38 F         138.1166  151.6843  155.2759 F       1  UNL1       -0.2025
     39 C         138.2105  149.7144  156.9674 C.ar    1  UNL1        0.1284
     40 N         138.6336  148.3173  157.3121 N.ar    1  UNL1       -0.2399
@<TRIPOS>BOND
     1    22    23    1
     2    23    24   ar
     3    24    25   ar
     4     1    25    1
     5     1    15    1
     6    15    16   ar
     7    16    17   ar
     8    17    18   ar
     9    18    19    1
    10    18    20   ar
    11     1     2    1
    12     2     3    1
    13     3    28    1
    14    28    29   ar
    15    29    30   ar
    16    30    34    1
    17    34    35   ar
    18    35    36   ar
    19    36    37   ar
    20    37    38    1
    21    37    39   ar
    22    39    40   ar
    23    30    31   ar
    24    31    32   ar
    25     3     4    1
    26     4     5    1
    27     5     6    2
    28     6     7    1
    29     7     8    2
    30     8     9    1
    31     9    10    1
    32    10    11    2
    33    11    12    1
    34    12    13    2
    35    25    26   ar
    36    26    27   ar
    37    27    23   ar
    38     6     1    1
    39    13     8    1
    40    20    15   ar
    41    32    28   ar
    42    13     5    1
    43    40    34   ar
    44    19    21    1
    45     2    14    1
    46    32    33    1
@<TRIPOS>MOLECULE
*****
 40 46 0 0 0
SMALL
GASTEIGER

@<TRIPOS>ATOM
      1 C         142.0258  140.8558  164.4147 C.3     1  UNL1        0.1559
      2 N         141.7072  141.8733  163.3596 N.3     1  UNL1       -0.2809
      3 C         141.0525  143.1682  163.7399 C.3     1  UNL1        0.1166
      4 C         140.7164  143.4456  165.1752 C.3     1  UNL1        0.0511
      5 C         141.0350  142.4281  166.2303 C.2     1  UNL1       -0.0037
      6 C         141.6897  141.1332  165.8500 C.2     1  UNL1        0.0784
      7 N         141.8824  140.3268  167.1000 N.2     1  UNL1       -0.2519
      8 C         141.3468  141.1232  168.2528 C.2     1  UNL1        0.0627
      9 C         141.2684  140.8336  169.7224 C.3     1  UNL1        0.0717
     10 C         140.6662  141.8428  170.6545 C.2     1  UNL1       -0.0198
     11 C         140.1425  143.1416  170.1170 C.2     1  UNL1       -0.0042
     12 C         140.2209  143.4312  168.6473 C.2     1  UNL1        0.0006
     13 C         140.8231  142.4220  167.7152 C.2     1  UNL1        0.0111
     14 H         141.0898  141.4173  162.6878 H       1  UNL1        0.1245
     15 C         142.5208  139.5892  165.0478 C.ar    1  UNL1        0.2058
     16 N         141.8134  138.2666  165.0437 N.ar    1  UNL1       -0.0548
     17 O         142.6656  137.2828  165.7895 O.2     1  UNL1       -0.2966
     18 C         143.8997  137.9975  166.2543 C.ar    1  UNL1        0.4165
     19 O         145.0256  137.3930  167.0397 O.3     1  UNL1       -0.4640
     20 N         143.8102  139.4230  165.7959 N.ar    1  UNL1       -0.1557
     21 H         144.9946  136.4886  167.2829 H       1  UNL1        0.2970
     22 C         142.1915  138.1542  159.8810 C.3     1  UNL1        0.1537
     23 N         142.6100  138.8967  161.1154 N.ar    1  UNL1       -0.2476
     24 C         141.6907  139.4937  162.1393 C.ar    1  UNL1        0.0944
     25 C         142.5338  140.1385  163.1993 C.ar    1  UNL1        0.0423
     26 C         143.9741  139.9399  162.8304 C.ar    1  UNL1        0.1194
     27 N         144.0212  139.1725  161.5424 N.ar    1  UNL1       -0.1679
     28 C         140.7339  144.1857  162.6848 C.ar    1  UNL1        0.1319
     29 N         141.0661  144.0769  161.2261 N.ar    1  UNL1       -0.2282
     30 C         140.5647  145.3146  160.5429 C.ar    1  UNL1        0.1171
     31 C         139.9226  146.1883  161.5794 C.ar    1  UNL1        0.0942
     32 N         140.0271  145.4906  162.9031 N.ar    1  UNL1       -0.3385
     33 H         139.6909  145.8296  163.7641 H       1  UNL1        0.1672
     34 C         140.6844  145.6242  159.0801 C.ar    1  UNL1        0.1006
     35 C         141.9255  145.2388  158.3310 C.ar    1  UNL1        0.0230
     36 C         142.0452  145.5483  156.8682 C.ar    1  UNL1        0.0328
     37 C         140.9238  146.2433  156.1545 C.ar    1  UNL1        0.1592
     38 F         141.0435  146.5529  154.6916 F       1  UNL1       -0.2025
     39 C         139.6827  146.6287  156.9036 C.ar    1  UNL1        0.1284
     40 N         139.5630  146.3191  158.3663 N.ar    1  UNL1       -0.2399
@<TRIPOS>BOND
     1    22    23    1
     2    23    24   ar
     3    24    25   ar
     4     1    25    1
     5     1    15    1
     6    15    16   ar
     7    16    17   ar
     8    17    18   ar
     9    18    19    1
    10    18    20   ar
    11     1     2    1
    12     2     3    1
    13     3    28    1
    14    28    29   ar
    15    29    30   ar
    16    30    34    1
    17    34    35   ar
    18    35    36   ar
    19    36    37   ar
    20    37    38    1
    21    37    39   ar
    22    39    40   ar
    23    30    31   ar
    24    31    32   ar
    25     3     4    1
    26     4     5    1
    27     5     6    2
    28     6     7    1
    29     7     8    2
    30     8     9    1
    31     9    10    1
    32    10    11    2
    33    11    12    1
    34    12    13    2
    35    25    26   ar
    36    26    27   ar
    37    27    23   ar
    38     6     1    1
    39    13     8    1
    40    20    15   ar
    41    32    28   ar
    42    13     5    1
    43    40    34   ar
    44    19    21    1
    45     2    14    1
    46    32    33    1
@<TRIPOS>MOLECULE
*****
 40 46 0 0 0
SMALL
GASTEIGER

@<TRIPOS>ATOM
      1 C         141.5272  141.9196  158.9168 C.3     1  UNL1        0.1559
      2 N         141.4358  140.6432  158.1343 N.3     1  UNL1       -0.2809
      3 C         142.1910  139.4293  158.5884 C.3     1  UNL1        0.1166
      4 C         143.0377  139.4920  159.8251 C.3     1  UNL1        0.0511
      5 C         143.1291  140.7684  160.6075 C.2     1  UNL1       -0.0037
      6 C         142.3739  141.9822  160.1534 C.2     1  UNL1        0.0784
      7 N         142.6557  143.0926  161.1217 N.2     1  UNL1       -0.2519
      8 C         143.5851  142.5650  162.1743 C.2     1  UNL1        0.0627
      9 C         144.2027  143.2070  163.3811 C.3     1  UNL1        0.0717
     10 C         145.1129  142.4125  164.2701 C.2     1  UNL1       -0.0198
     11 C         145.4055  140.9761  163.9523 C.2     1  UNL1       -0.0042
     12 C         144.7879  140.3341  162.7455 C.2     1  UNL1        0.0006
     13 C         143.8777  141.1285  161.8565 C.2     1  UNL1        0.0111
     14 H         141.7571  140.8534  157.1893 H       1  UNL1        0.1245
     15 C         141.2969  143.3465  159.3183 C.ar    1  UNL1        0.2058
     16 N         142.1686  144.5141  158.9626 N.ar    1  UNL1       -0.0548
     17 O         141.5648  145.7454  159.5705 O.2     1  UNL1       -0.2966
     18 C         140.3200  145.3386  160.3018 C.ar    1  UNL1        0.4165
     19 O         139.4018  146.2538  161.0565 O.3     1  UNL1       -0.4640
     20 N         140.1544  143.8559  160.1459 N.ar    1  UNL1       -0.1557
     21 H         139.5867  147.1714  161.0998 H       1  UNL1        0.2970
     22 C         137.1519  142.8123  156.0989 C.3     1  UNL1        0.1537
     23 N         138.5895  142.7629  156.5243 N.ar    1  UNL1       -0.2476
     24 C         139.1091  142.1929  157.8109 C.ar    1  UNL1        0.0944
     25 C         140.6006  142.3525  157.8196 C.ar    1  UNL1        0.0423
     26 C         141.0027  143.0212  156.5385 C.ar    1  UNL1        0.1194
     27 N         139.7597  143.2748  155.7379 N.ar    1  UNL1       -0.1679
     28 C         142.0995  138.1528  157.8059 C.ar    1  UNL1        0.1319
     29 N         143.0319  136.9830  157.9153 N.ar    1  UNL1       -0.2282
     30 C         142.5683  135.9292  156.9537 C.ar    1  UNL1        0.1171
     31 C         141.3493  136.4478  156.2501 C.ar    1  UNL1        0.0942
     32 N         141.0596  137.8221  156.7768 N.ar    1  UNL1       -0.3385
     33 H         140.3172  138.4047  156.4963 H       1  UNL1        0.1672
     34 C         143.2109  134.5916  156.7343 C.ar    1  UNL1        0.1006
     35 C         143.0547  133.8917  155.4169 C.ar    1  UNL1        0.0230
     36 C         143.6973  132.5542  155.1975 C.ar    1  UNL1        0.0328
     37 C         144.4959  131.9166  156.2955 C.ar    1  UNL1        0.1592
     38 F         145.1385  130.5791  156.0761 F       1  UNL1       -0.2025
     39 C         144.6521  132.6166  157.6129 C.ar    1  UNL1        0.1284
     40 N         144.0095  133.9541  157.8323 N.ar    1  UNL1       -0.2399
@<TRIPOS>BOND
     1    22    23    1
     2    23    24   ar
     3    24    25   ar
     4     1    25    1
     5     1    15    1
     6    15    16   ar
     7    16    17   ar
     8    17    18   ar
     9    18    19    1
    10    18    20   ar
    11     1     2    1
    12     2     3    1
    13     3    28    1
    14    28    29   ar
    15    29    30   ar
    16    30    34    1
    17    34    35   ar
    18    35    36   ar
    19    36    37   ar
    20    37    38    1
    21    37    39   ar
    22    39    40   ar
    23    30    31   ar
    24    31    32   ar
    25     3     4    1
    26     4     5    1
    27     5     6    2
    28     6     7    1
    29     7     8    2
    30     8     9    1
    31     9    10    1
    32    10    11    2
    33    11    12    1
    34    12    13    2
    35    25    26   ar
    36    26    27   ar
    37    27    23   ar
    38     6     1    1
    39    13     8    1
    40    20    15   ar
    41    32    28   ar
    42    13     5    1
    43    40    34   ar
    44    19    21    1
    45     2    14    1
    46    32    33    1
@<TRIPOS>MOLECULE
*****
 40 46 0 0 0
SMALL
GASTEIGER

@<TRIPOS>ATOM
      1 C         140.7433  141.2150  159.7941 C.3     1  UNL1        0.1559
      2 N         141.0845  140.1299  158.8163 N.3     1  UNL1       -0.2809
      3 C         142.3897  139.3997  158.9315 C.3     1  UNL1        0.1166
      4 C         143.3538  139.7548  160.0245 C.3     1  UNL1        0.0511
      5 C         143.0126  140.8399  161.0023 C.2     1  UNL1       -0.0037
      6 C         141.7074  141.5700  160.8871 C.2     1  UNL1        0.0784
      7 N         141.6462  142.5864  161.9885 N.2     1  UNL1       -0.2519
      8 C         142.9135  142.4845  162.7844 C.2     1  UNL1        0.0627
      9 C         143.4076  143.2351  163.9854 C.3     1  UNL1        0.0717
     10 C         144.7462  142.9063  164.5768 C.2     1  UNL1       -0.0198
     11 C         145.5908  141.8269  163.9673 C.2     1  UNL1       -0.0042
     12 C         145.0967  141.0762  162.7663 C.2     1  UNL1        0.0006
     13 C         143.7581  141.4051  162.1749 C.2     1  UNL1        0.0111
     14 H         141.0645  140.5527  157.8883 H       1  UNL1        0.1245
     15 C         139.9747  142.3089  160.4744 C.ar    1  UNL1        0.2058
     16 N         140.1304  143.7803  160.2286 N.ar    1  UNL1       -0.0548
     17 O         139.1672  144.5040  161.1223 O.2     1  UNL1       -0.2966
     18 C         138.4163  143.4798  161.9204 C.ar    1  UNL1        0.4165
     19 O         137.3530  143.7627  162.9399 O.3     1  UNL1       -0.4640
     20 N         138.9153  142.1231  161.5200 N.ar    1  UNL1       -0.1557
     21 H         137.1052  144.6471  163.1254 H       1  UNL1        0.2970
     22 C         137.1146  142.7033  156.2588 C.3     1  UNL1        0.1537
     23 N         137.8444  141.9239  157.3124 N.ar    1  UNL1       -0.2476
     24 C         139.1552  142.2995  157.9376 C.ar    1  UNL1        0.0944
     25 C         139.5123  141.2399  158.9374 C.ar    1  UNL1        0.0423
     26 C         138.4222  140.2095  158.9302 C.ar    1  UNL1        0.1194
     27 N         137.3914  140.6323  157.9259 N.ar    1  UNL1       -0.1679
     28 C         142.7309  138.3145  157.9537 C.ar    1  UNL1        0.1319
     29 N         142.3016  136.8801  158.0435 N.ar    1  UNL1       -0.2282
     30 C         142.8667  136.1523  156.8598 C.ar    1  UNL1        0.1171
     31 C         143.6451  137.1369  156.0386 C.ar    1  UNL1        0.0942
     32 N         143.5612  138.4733  156.7147 N.ar    1  UNL1       -0.3385
     33 H         143.9779  139.3080  156.4003 H       1  UNL1        0.1672
     34 C         142.6851  134.6955  156.5516 C.ar    1  UNL1        0.1006
     35 C         143.5161  133.6691  157.2629 C.ar    1  UNL1        0.0230
     36 C         143.3345  132.2125  156.9547 C.ar    1  UNL1        0.0328
     37 C         142.3220  131.7821  155.9351 C.ar    1  UNL1        0.1592
     38 F         142.1404  130.3254  155.6269 F       1  UNL1       -0.2025
     39 C         141.4910  132.8085  155.2238 C.ar    1  UNL1        0.1284
     40 N         141.6726  134.2652  155.5320 N.ar    1  UNL1       -0.2399
@<TRIPOS>BOND
     1    22    23    1
     2    23    24   ar
     3    24    25   ar
     4     1    25    1
     5     1    15    1
     6    15    16   ar
     7    16    17   ar
     8    17    18   ar
     9    18    19    1
    10    18    20   ar
    11     1     2    1
    12     2     3    1
    13     3    28    1
    14    28    29   ar
    15    29    30   ar
    16    30    34    1
    17    34    35   ar
    18    35    36   ar
    19    36    37   ar
    20    37    38    1
    21    37    39   ar
    22    39    40   ar
    23    30    31   ar
    24    31    32   ar
    25     3     4    1
    26     4     5    1
    27     5     6    2
    28     6     7    1
    29     7     8    2
    30     8     9    1
    31     9    10    1
    32    10    11    2
    33    11    12    1
    34    12    13    2
    35    25    26   ar
    36    26    27   ar
    37    27    23   ar
    38     6     1    1
    39    13     8    1
    40    20    15   ar
    41    32    28   ar
    42    13     5    1
    43    40    34   ar
    44    19    21    1
    45     2    14    1
    46    32    33    1
@<TRIPOS>MOLECULE
*****
 40 46 0 0 0
SMALL
GASTEIGER

@<TRIPOS>ATOM
      1 C         141.7422  141.7213  160.4252 C.3     1  UNL1        0.1559
      2 N         141.3713  142.4284  159.1554 N.3     1  UNL1       -0.2809
      3 C         140.4762  143.6312  159.2008 C.3     1  UNL1        0.1166
      4 C         139.9519  144.1268  160.5159 C.3     1  UNL1        0.0511
      5 C         140.3228  143.4197  161.7857 C.2     1  UNL1       -0.0037
      6 C         141.2179  142.2169  161.7403 C.2     1  UNL1        0.0784
      7 N         141.4103  141.7291  163.1457 N.2     1  UNL1       -0.2519
      8 C         140.6341  142.6304  164.0596 C.2     1  UNL1        0.0627
      9 C         140.4525  142.6346  165.5485 C.3     1  UNL1        0.0717
     10 C         139.5988  143.6837  166.1969 C.2     1  UNL1       -0.0198
     11 C         138.9267  144.7286  165.3564 C.2     1  UNL1       -0.0042
     12 C         139.1083  144.7243  163.8675 C.2     1  UNL1        0.0006
     13 C         139.9620  143.6752  163.2191 C.2     1  UNL1        0.0111
     14 H         140.9106  141.7409  158.5592 H       1  UNL1        0.1245
     15 C         142.3710  140.7214  161.3498 C.ar    1  UNL1        0.2058
     16 N         141.7568  139.4294  161.8006 N.ar    1  UNL1       -0.0548
     17 O         142.7307  138.7475  162.7154 O.2     1  UNL1       -0.2966
     18 C         143.9467  139.6182  162.8299 C.ar    1  UNL1        0.4165
     19 O         145.1702  139.3211  163.6452 O.3     1  UNL1       -0.4640
     20 N         143.7244  140.8382  161.9859 N.ar    1  UNL1       -0.1557
     21 H         145.2201  138.5293  164.1438 H       1  UNL1        0.2970
     22 C         142.9108  137.9546  156.9142 C.3     1  UNL1        0.1537
     23 N         143.0220  139.1471  157.8174 N.ar    1  UNL1       -0.2476
     24 C         141.9413  139.6803  158.7107 C.ar    1  UNL1        0.0944
     25 C         142.4848  140.8784  159.4312 C.ar    1  UNL1        0.0423
     26 C         143.9013  141.0857  158.9832 C.ar    1  UNL1        0.1194
     27 N         144.2333  140.0156  157.9858 N.ar    1  UNL1       -0.1679
     28 C         140.1052  144.3385  157.9310 C.ar    1  UNL1        0.1319
     29 N         140.1223  145.8221  157.7109 N.ar    1  UNL1       -0.2282
     30 C         139.6798  146.0868  156.3023 C.ar    1  UNL1        0.1171
     31 C         139.3892  144.7667  155.6519 C.ar    1  UNL1        0.0942
     32 N         139.6521  143.6862  156.6585 N.ar    1  UNL1       -0.3385
     33 H         139.5459  142.7188  156.5101 H       1  UNL1        0.1672
     34 C         139.5505  147.4349  155.6573 C.ar    1  UNL1        0.1006
     35 C         138.7235  148.5025  156.3102 C.ar    1  UNL1        0.0230
     36 C         138.5943  149.8506  155.6653 C.ar    1  UNL1        0.0328
     37 C         139.2920  150.1311  154.3675 C.ar    1  UNL1        0.1592
     38 F         139.1628  151.4792  153.7225 F       1  UNL1       -0.2025
     39 C         140.1190  149.0635  153.7146 C.ar    1  UNL1        0.1284
     40 N         140.2483  147.7154  154.3595 N.ar    1  UNL1       -0.2399
@<TRIPOS>BOND
     1    22    23    1
     2    23    24   ar
     3    24    25   ar
     4     1    25    1
     5     1    15    1
     6    15    16   ar
     7    16    17   ar
     8    17    18   ar
     9    18    19    1
    10    18    20   ar
    11     1     2    1
    12     2     3    1
    13     3    28    1
    14    28    29   ar
    15    29    30   ar
    16    30    34    1
    17    34    35   ar
    18    35    36   ar
    19    36    37   ar
    20    37    38    1
    21    37    39   ar
    22    39    40   ar
    23    30    31   ar
    24    31    32   ar
    25     3     4    1
    26     4     5    1
    27     5     6    2
    28     6     7    1
    29     7     8    2
    30     8     9    1
    31     9    10    1
    32    10    11    2
    33    11    12    1
    34    12    13    2
    35    25    26   ar
    36    26    27   ar
    37    27    23   ar
    38     6     1    1
    39    13     8    1
    40    20    15   ar
    41    32    28   ar
    42    13     5    1
    43    40    34   ar
    44    19    21    1
    45     2    14    1
    46    32    33    1
@<TRIPOS>MOLECULE
*****
 40 46 0 0 0
SMALL
GASTEIGER

@<TRIPOS>ATOM
      1 C         140.7548  142.1291  160.1404 C.3     1  UNL1        0.1559
      2 N         141.1351  141.1403  159.0785 N.3     1  UNL1       -0.2809
      3 C         141.9866  139.9557  159.4270 C.3     1  UNL1        0.1166
      4 C         142.4578  139.7597  160.8376 C.3     1  UNL1        0.0511
      5 C         142.0775  140.7484  161.8995 C.2     1  UNL1       -0.0037
      6 C         141.2260  141.9331  161.5510 C.2     1  UNL1        0.0784
      7 N         141.0129  142.7344  162.8009 N.2     1  UNL1       -0.2519
      8 C         141.7326  142.0451  163.9220 C.2     1  UNL1        0.0627
      9 C         141.8738  142.3764  165.3780 C.3     1  UNL1        0.0717
     10 C         142.6730  141.4803  166.2770 C.2     1  UNL1       -0.0198
     11 C         143.3310  140.2529  165.7199 C.2     1  UNL1       -0.0042
     12 C         143.1898  139.9215  164.2639 C.2     1  UNL1        0.0006
     13 C         142.3906  140.8176  163.3649 C.2     1  UNL1        0.0111
     14 H         141.6352  141.6604  158.3574 H       1  UNL1        0.1245
     15 C         140.1363  143.3308  160.7911 C.ar    1  UNL1        0.2058
     16 N         138.7179  143.4445  161.2654 N.ar    1  UNL1       -0.0548
     17 O         138.5327  144.8138  161.8491 O.2     1  UNL1       -0.2966
     18 C         139.8366  145.5464  161.7355 C.ar    1  UNL1        0.4165
     19 O         140.1028  146.9492  162.1951 O.3     1  UNL1       -0.4640
     20 N         140.8278  144.6298  161.0816 N.ar    1  UNL1       -0.1557
     21 H         139.4185  147.4489  162.5952 H       1  UNL1        0.2970
     22 C         137.2596  143.0824  156.2991 C.3     1  UNL1        0.1537
     23 N         138.4623  143.1806  157.1902 N.ar    1  UNL1       -0.2476
     24 C         138.7742  142.2847  158.3522 C.ar    1  UNL1        0.0944
     25 C         140.0688  142.7424  158.9559 C.ar    1  UNL1        0.0423
     26 C         140.5570  143.9211  158.1670 C.ar    1  UNL1        0.1194
     27 N         139.5641  144.1920  157.0758 N.ar    1  UNL1       -0.1679
     28 C         142.3669  138.9669  158.3650 C.ar    1  UNL1        0.1319
     29 N         142.0922  137.4926  158.3941 N.ar    1  UNL1       -0.2282
     30 C         142.6442  136.8933  157.1346 C.ar    1  UNL1        0.1171
     31 C         143.2601  137.9973  156.3272 C.ar    1  UNL1        0.0942
     32 N         143.0887  139.2789  157.0877 N.ar    1  UNL1       -0.3385
     33 H         143.3960  140.1685  156.7991 H       1  UNL1        0.1672
     34 C         142.5898  135.4444  156.7500 C.ar    1  UNL1        0.1006
     35 C         141.6992  134.9992  155.6282 C.ar    1  UNL1        0.0230
     36 C         141.6449  133.5503  155.2436 C.ar    1  UNL1        0.0328
     37 C         142.4811  132.5468  155.9809 C.ar    1  UNL1        0.1592
     38 F         142.4267  131.0979  155.5964 F       1  UNL1       -0.2025
     39 C         143.3717  132.9921  157.1028 C.ar    1  UNL1        0.1284
     40 N         143.4260  134.4409  157.4873 N.ar    1  UNL1       -0.2399
@<TRIPOS>BOND
     1    22    23    1
     2    23    24   ar
     3    24    25   ar
     4     1    25    1
     5     1    15    1
     6    15    16   ar
     7    16    17   ar
     8    17    18   ar
     9    18    19    1
    10    18    20   ar
    11     1     2    1
    12     2     3    1
    13     3    28    1
    14    28    29   ar
    15    29    30   ar
    16    30    34    1
    17    34    35   ar
    18    35    36   ar
    19    36    37   ar
    20    37    38    1
    21    37    39   ar
    22    39    40   ar
    23    30    31   ar
    24    31    32   ar
    25     3     4    1
    26     4     5    1
    27     5     6    2
    28     6     7    1
    29     7     8    2
    30     8     9    1
    31     9    10    1
    32    10    11    2
    33    11    12    1
    34    12    13    2
    35    25    26   ar
    36    26    27   ar
    37    27    23   ar
    38     6     1    1
    39    13     8    1
    40    20    15   ar
    41    32    28   ar
    42    13     5    1
    43    40    34   ar
    44    19    21    1
    45     2    14    1
    46    32    33    1
@<TRIPOS>MOLECULE
*****
 40 46 0 0 0
SMALL
GASTEIGER

@<TRIPOS>ATOM
      1 C         142.4140  143.5550  159.1839 C.3     1  UNL1        0.1559
      2 N         143.2824  143.2103  158.0105 N.3     1  UNL1       -0.2809
      3 C         144.4520  142.2881  158.1882 C.3     1  UNL1        0.1166
      4 C         144.7531  141.7104  159.5394 C.3     1  UNL1        0.0511
      5 C         143.8847  142.0551  160.7129 C.2     1  UNL1       -0.0037
      6 C         142.7152  142.9774  160.5351 C.2     1  UNL1        0.0784
      7 N         142.0423  143.1345  161.8665 N.2     1  UNL1       -0.2519
      8 C         142.7959  142.3093  162.8671 C.2     1  UNL1        0.0627
      9 C         142.5925  142.0792  164.3352 C.3     1  UNL1        0.0717
     10 C         143.5276  141.1819  165.0904 C.2     1  UNL1       -0.0198
     11 C         144.6663  140.5148  164.3774 C.2     1  UNL1       -0.0042
     12 C         144.8698  140.7450  162.9092 C.2     1  UNL1        0.0006
     13 C         143.9346  141.6422  162.1540 C.2     1  UNL1        0.0111
     14 H         143.6530  144.0896  157.6500 H       1  UNL1        0.1245
     15 C         141.3076  144.1751  159.9848 C.ar    1  UNL1        0.2058
     16 N         140.0029  143.5245  160.3373 N.ar    1  UNL1       -0.0548
     17 O         139.2006  144.5020  161.1442 O.2     1  UNL1       -0.2966
     18 C         140.0096  145.7567  161.2902 C.ar    1  UNL1        0.4165
     19 O         139.5900  146.9959  162.0240 O.3     1  UNL1       -0.4640
     20 N         141.3118  145.5546  160.5737 N.ar    1  UNL1       -0.1557
     21 H         138.7531  147.0309  162.4440 H       1  UNL1        0.2970
     22 C         138.9494  145.0762  155.5012 C.3     1  UNL1        0.1537
     23 N         140.1361  145.0472  156.4181 N.ar    1  UNL1       -0.2476
     24 C         140.4555  143.9710  157.4130 C.ar    1  UNL1        0.0944
     25 C         141.7287  144.3480  158.1109 C.ar    1  UNL1        0.0423
     26 C         142.1960  145.6572  157.5474 C.ar    1  UNL1        0.1194
     27 N         141.2118  146.0894  156.5012 N.ar    1  UNL1       -0.1679
     28 C         145.3204  141.9433  157.0147 C.ar    1  UNL1        0.1319
     29 N         146.6644  142.5350  156.7086 N.ar    1  UNL1       -0.2282
     30 C         147.1719  141.9038  155.4460 C.ar    1  UNL1        0.1171
     31 C         146.1417  140.9221  154.9719 C.ar    1  UNL1        0.0942
     32 N         144.9974  140.9465  155.9414 N.ar    1  UNL1       -0.3385
     33 H         144.1782  140.4036  155.8834 H       1  UNL1        0.1672
     34 C         148.4802  142.2020  154.7754 C.ar    1  UNL1        0.1006
     35 C         148.5178  143.0869  153.5647 C.ar    1  UNL1        0.0230
     36 C         149.8259  143.3851  152.8941 C.ar    1  UNL1        0.0328
     37 C         151.0964  142.7985  153.4340 C.ar    1  UNL1        0.1592
     38 F         152.4046  143.0967  152.7634 F       1  UNL1       -0.2025
     39 C         151.0588  141.9137  154.6447 C.ar    1  UNL1        0.1284
     40 N         149.7507  141.6154  155.3153 N.ar    1  UNL1       -0.2399
@<TRIPOS>BOND
     1    22    23    1
     2    23    24   ar
     3    24    25   ar
     4     1    25    1
     5     1    15    1
     6    15    16   ar
     7    16    17   ar
     8    17    18   ar
     9    18    19    1
    10    18    20   ar
    11     1     2    1
    12     2     3    1
    13     3    28    1
    14    28    29   ar
    15    29    30   ar
    16    30    34    1
    17    34    35   ar
    18    35    36   ar
    19    36    37   ar
    20    37    38    1
    21    37    39   ar
    22    39    40   ar
    23    30    31   ar
    24    31    32   ar
    25     3     4    1
    26     4     5    1
    27     5     6    2
    28     6     7    1
    29     7     8    2
    30     8     9    1
    31     9    10    1
    32    10    11    2
    33    11    12    1
    34    12    13    2
    35    25    26   ar
    36    26    27   ar
    37    27    23   ar
    38     6     1    1
    39    13     8    1
    40    20    15   ar
    41    32    28   ar
    42    13     5    1
    43    40    34   ar
    44    19    21    1
    45     2    14    1
    46    32    33    1
