@<TRIPOS>MOLECULE
*****
 21 23 0 0 0
SMALL
GASTEIGER

@<TRIPOS>ATOM
      1 N         141.7932  141.1104  165.7937 N.pl3   1  UNL1       -0.2860
      2 C         143.0447  141.2433  164.9774 C.ar    1  UNL1        0.0576
      3 C         143.9567  142.4153  165.1883 C.ar    1  UNL1        0.0153
      4 C         145.2081  142.5481  164.3721 C.ar    1  UNL1        0.0013
      5 C         145.5475  141.5089  163.3450 C.ar    1  UNL1        0.0006
      6 C         144.6355  140.3368  163.1342 C.ar    1  UNL1        0.0077
      7 C         143.3841  140.2040  163.9504 C.ar    1  UNL1        0.0431
      8 S         142.4720  139.0320  163.7396 S.3     1  UNL1       -0.0844
      9 C         141.2206  138.8991  164.5558 C.ar    1  UNL1        0.0431
     10 C         140.3084  137.7271  164.3450 C.ar    1  UNL1        0.0086
     11 C         139.0570  137.5942  165.1612 C.ar    1  UNL1        0.0120
     12 C         138.7176  138.6335  166.1882 C.ar    1  UNL1        0.0589
     13 CL        137.4662  138.5007  167.0044 Cl      1  UNL1       -0.0822
     14 C         139.6296  139.8055  166.3991 C.ar    1  UNL1        0.0267
     15 C         140.8812  139.9384  165.5828 C.ar    1  UNL1        0.0585
     16 C         141.4538  142.1496  166.8207 C.3     1  UNL1        0.0970
     17 C         142.0769  142.0886  168.1838 C.3     1  UNL1        0.0391
     18 C         141.4898  141.1972  169.2377 C.3     1  UNL1        0.0739
     19 C         139.0808  140.5107  169.9270 C.3     1  UNL1        0.0897
     20 N         140.1690  141.5409  169.8600 N.3     1  UNL1       -0.2703
     21 C         139.9363  142.9148  170.4152 C.3     1  UNL1        0.0897
@<TRIPOS>BOND
     1    19    20    1
     2    20    21    1
     3    20    18    1
     4    18    17    1
     5    17    16    1
     6    16     1    1
     7     1     2    1
     8     2     3   ar
     9     3     4   ar
    10     4     5   ar
    11     5     6   ar
    12     6     7   ar
    13     7     8    1
    14     8     9    1
    15     9    10   ar
    16    10    11   ar
    17    11    12   ar
    18    12    13    1
    19    12    14   ar
    20    14    15   ar
    21    15     1    1
    22     7     2   ar
    23    15     9   ar
@<TRIPOS>MOLECULE
*****
 21 23 0 0 0
SMALL
GASTEIGER

@<TRIPOS>ATOM
      1 N         141.7121  141.1687  165.7334 N.pl3   1  UNL1       -0.2860
      2 C         143.0224  141.2644  165.0093 C.ar    1  UNL1        0.0576
      3 C         143.8596  142.5027  165.1344 C.ar    1  UNL1        0.0153
      4 C         145.1698  142.5984  164.4103 C.ar    1  UNL1        0.0013
      5 C         145.6427  141.4558  163.5613 C.ar    1  UNL1        0.0006
      6 C         144.8054  140.2176  163.4362 C.ar    1  UNL1        0.0077
      7 C         143.4953  140.1219  164.1603 C.ar    1  UNL1        0.0431
      8 S         142.6579  138.8836  164.0352 S.3     1  UNL1       -0.0844
      9 C         141.3478  138.7879  164.7593 C.ar    1  UNL1        0.0431
     10 C         140.5104  137.5496  164.6343 C.ar    1  UNL1        0.0086
     11 C         139.2003  137.4539  165.3583 C.ar    1  UNL1        0.0120
     12 C         138.7274  138.5964  166.2074 C.ar    1  UNL1        0.0589
     13 CL        137.4172  138.5007  166.9314 Cl      1  UNL1       -0.0822
     14 C         139.5646  139.8347  166.3324 C.ar    1  UNL1        0.0267
     15 C         140.8749  139.9304  165.6084 C.ar    1  UNL1        0.0585
     16 C         141.2392  142.3112  166.5825 C.3     1  UNL1        0.0970
     17 C         140.1937  143.2514  166.0601 C.3     1  UNL1        0.0391
     18 C         140.4141  143.9726  164.7634 C.3     1  UNL1        0.0739
     19 C         139.4600  145.2976  162.7425 C.3     1  UNL1        0.0897
     20 N         139.2399  144.4604  163.9675 N.3     1  UNL1       -0.2703
     21 C         137.8458  144.1109  164.3966 C.3     1  UNL1        0.0897
@<TRIPOS>BOND
     1    19    20    1
     2    20    21    1
     3    20    18    1
     4    18    17    1
     5    17    16    1
     6    16     1    1
     7     1     2    1
     8     2     3   ar
     9     3     4   ar
    10     4     5   ar
    11     5     6   ar
    12     6     7   ar
    13     7     8    1
    14     8     9    1
    15     9    10   ar
    16    10    11   ar
    17    11    12   ar
    18    12    13    1
    19    12    14   ar
    20    14    15   ar
    21    15     1    1
    22     7     2   ar
    23    15     9   ar
@<TRIPOS>MOLECULE
*****
 21 23 0 0 0
SMALL
GASTEIGER

@<TRIPOS>ATOM
      1 N         140.7152  142.3678  165.0683 N.pl3   1  UNL1       -0.2860
      2 C         141.8200  142.8248  164.1624 C.ar    1  UNL1        0.0576
      3 C         142.2527  144.2610  164.1727 C.ar    1  UNL1        0.0153
      4 C         143.3575  144.7179  163.2669 C.ar    1  UNL1        0.0013
      5 C         144.0296  143.7387  162.3508 C.ar    1  UNL1        0.0006
      6 C         143.5970  142.3025  162.3405 C.ar    1  UNL1        0.0077
      7 C         142.4922  141.8456  163.2463 C.ar    1  UNL1        0.0431
      8 S         142.0595  140.4093  163.2360 S.3     1  UNL1       -0.0844
      9 C         140.9547  139.9524  164.1419 C.ar    1  UNL1        0.0431
     10 C         140.5220  138.5161  164.1316 C.ar    1  UNL1        0.0086
     11 C         139.4172  138.0592  165.0375 C.ar    1  UNL1        0.0120
     12 C         138.7450  139.0384  165.9536 C.ar    1  UNL1        0.0589
     13 CL        137.6402  138.5815  166.8594 Cl      1  UNL1       -0.0822
     14 C         139.1777  140.4746  165.9639 C.ar    1  UNL1        0.0267
     15 C         140.2825  140.9316  165.0580 C.ar    1  UNL1        0.0585
     16 C         140.0430  143.3471  165.9844 C.3     1  UNL1        0.0970
     17 C         139.0278  144.3080  165.4404 C.3     1  UNL1        0.0391
     18 C         138.0407  143.8511  164.4076 C.3     1  UNL1        0.0739
     19 C         139.1282  145.1574  162.4426 C.3     1  UNL1        0.0897
     20 N         138.3746  143.9636  162.9495 N.3     1  UNL1       -0.2703
     21 C         137.9549  142.8823  161.9984 C.3     1  UNL1        0.0897
@<TRIPOS>BOND
     1    19    20    1
     2    20    21    1
     3    20    18    1
     4    18    17    1
     5    17    16    1
     6    16     1    1
     7     1     2    1
     8     2     3   ar
     9     3     4   ar
    10     4     5   ar
    11     5     6   ar
    12     6     7   ar
    13     7     8    1
    14     8     9    1
    15     9    10   ar
    16    10    11   ar
    17    11    12   ar
    18    12    13    1
    19    12    14   ar
    20    14    15   ar
    21    15     1    1
    22     7     2   ar
    23    15     9   ar
@<TRIPOS>MOLECULE
*****
 21 23 0 0 0
SMALL
GASTEIGER

@<TRIPOS>ATOM
      1 N         139.9491  141.8055  165.2382 N.pl3   1  UNL1       -0.2860
      2 C         139.5691  140.6123  164.4124 C.ar    1  UNL1        0.0576
      3 C         139.5575  140.7089  162.9156 C.ar    1  UNL1        0.0153
      4 C         139.1775  139.5157  162.0900 C.ar    1  UNL1        0.0013
      5 C         138.8090  138.2258  162.7611 C.ar    1  UNL1        0.0006
      6 C         138.8206  138.1292  164.2579 C.ar    1  UNL1        0.0077
      7 C         139.2006  139.3224  165.0836 C.ar    1  UNL1        0.0431
      8 S         139.2122  139.2258  166.5805 S.3     1  UNL1       -0.0844
      9 C         139.5922  140.4190  167.4061 C.ar    1  UNL1        0.0431
     10 C         139.6037  140.3224  168.9030 C.ar    1  UNL1        0.0086
     11 C         139.9838  141.5156  169.7287 C.ar    1  UNL1        0.0120
     12 C         140.3523  142.8055  169.0575 C.ar    1  UNL1        0.0589
     13 CL        140.7323  143.9987  169.8832 Cl      1  UNL1       -0.0822
     14 C         140.3407  142.9021  167.5607 C.ar    1  UNL1        0.0267
     15 C         139.9607  141.7089  166.7350 C.ar    1  UNL1        0.0585
     16 C         140.3176  143.0954  164.5670 C.3     1  UNL1        0.0970
     17 C         139.2778  144.1561  164.3584 C.3     1  UNL1        0.0391
     18 C         138.5808  144.2732  163.0354 C.3     1  UNL1        0.0739
     19 C         139.7100  146.2344  161.7591 C.3     1  UNL1        0.0897
     20 N         139.3250  144.7868  161.8385 N.3     1  UNL1       -0.2703
     21 C         139.6841  143.8528  160.7211 C.3     1  UNL1        0.0897
@<TRIPOS>BOND
     1    19    20    1
     2    20    21    1
     3    20    18    1
     4    18    17    1
     5    17    16    1
     6    16     1    1
     7     1     2    1
     8     2     3   ar
     9     3     4   ar
    10     4     5   ar
    11     5     6   ar
    12     6     7   ar
    13     7     8    1
    14     8     9    1
    15     9    10   ar
    16    10    11   ar
    17    11    12   ar
    18    12    13    1
    19    12    14   ar
    20    14    15   ar
    21    15     1    1
    22     7     2   ar
    23    15     9   ar
@<TRIPOS>MOLECULE
*****
 21 23 0 0 0
SMALL
GASTEIGER

@<TRIPOS>ATOM
      1 N         141.3576  140.4347  165.9676 N.pl3   1  UNL1       -0.2860
      2 C         140.1888  139.4999  166.0680 C.ar    1  UNL1        0.0576
      3 C         139.1077  139.7564  167.0756 C.ar    1  UNL1        0.0153
      4 C         137.9389  138.8217  167.1760 C.ar    1  UNL1        0.0013
      5 C         137.8512  137.6304  166.2686 C.ar    1  UNL1        0.0006
      6 C         138.9322  137.3739  165.2610 C.ar    1  UNL1        0.0077
      7 C         140.1010  138.3087  165.1606 C.ar    1  UNL1        0.0431
      8 S         141.1822  138.0522  164.1529 S.3     1  UNL1       -0.0844
      9 C         142.3510  138.9870  164.0526 C.ar    1  UNL1        0.0431
     10 C         143.4322  138.7305  163.0449 C.ar    1  UNL1        0.0086
     11 C         144.6010  139.6653  162.9446 C.ar    1  UNL1        0.0120
     12 C         144.6887  140.8565  163.8520 C.ar    1  UNL1        0.0589
     13 CL        145.8575  141.7912  163.7516 Cl      1  UNL1       -0.0822
     14 C         143.6076  141.1130  164.8596 C.ar    1  UNL1        0.0267
     15 C         142.4387  140.1782  164.9600 C.ar    1  UNL1        0.0585
     16 C         141.4453  141.6259  166.8750 C.3     1  UNL1        0.0970
     17 C         140.6193  142.8458  166.5932 C.3     1  UNL1        0.0391
     18 C         140.5729  143.4163  165.2067 C.3     1  UNL1        0.0739
     19 C         138.9785  144.7425  163.6417 C.3     1  UNL1        0.0897
     20 N         139.2612  143.5375  164.4890 N.3     1  UNL1       -0.2703
     21 C         138.2324  142.4537  164.6188 C.3     1  UNL1        0.0897
@<TRIPOS>BOND
     1    19    20    1
     2    20    21    1
     3    20    18    1
     4    18    17    1
     5    17    16    1
     6    16     1    1
     7     1     2    1
     8     2     3   ar
     9     3     4   ar
    10     4     5   ar
    11     5     6   ar
    12     6     7   ar
    13     7     8    1
    14     8     9    1
    15     9    10   ar
    16    10    11   ar
    17    11    12   ar
    18    12    13    1
    19    12    14   ar
    20    14    15   ar
    21    15     1    1
    22     7     2   ar
    23    15     9   ar
@<TRIPOS>MOLECULE
*****
 21 23 0 0 0
SMALL
GASTEIGER

@<TRIPOS>ATOM
      1 N         138.5192  141.8306  163.7603 N.pl3   1  UNL1       -0.2860
      2 C         139.2957  143.0664  163.4139 C.ar    1  UNL1        0.0576
      3 C         139.0307  143.7813  162.1222 C.ar    1  UNL1        0.0153
      4 C         139.8072  145.0171  161.7759 C.ar    1  UNL1        0.0013
      5 C         140.8487  145.5379  162.7213 C.ar    1  UNL1        0.0006
      6 C         141.1138  144.8230  164.0131 C.ar    1  UNL1        0.0077
      7 C         140.3373  143.5873  164.3594 C.ar    1  UNL1        0.0431
      8 S         140.6023  142.8723  165.6512 S.3     1  UNL1       -0.0844
      9 C         139.8258  141.6366  165.9974 C.ar    1  UNL1        0.0431
     10 C         140.0909  140.9216  167.2892 C.ar    1  UNL1        0.0086
     11 C         139.3144  139.6859  167.6355 C.ar    1  UNL1        0.0120
     12 C         138.2728  139.1650  166.6901 C.ar    1  UNL1        0.0589
     13 CL        137.4963  137.9293  167.0364 Cl      1  UNL1       -0.0822
     14 C         138.0078  139.8799  165.3983 C.ar    1  UNL1        0.0267
     15 C         138.7843  141.1157  165.0520 C.ar    1  UNL1        0.0585
     16 C         137.4777  141.3098  162.8148 C.3     1  UNL1        0.0970
     17 C         137.8603  140.3366  161.7395 C.3     1  UNL1        0.0391
     18 C         139.2916  139.9159  161.5834 C.3     1  UNL1        0.0739
     19 C         138.7750  137.6749  162.7923 C.3     1  UNL1        0.0897
     20 N         139.7261  138.5527  162.0340 N.3     1  UNL1       -0.2703
     21 C         141.1116  138.0673  161.7264 C.3     1  UNL1        0.0897
@<TRIPOS>BOND
     1    19    20    1
     2    20    21    1
     3    20    18    1
     4    18    17    1
     5    17    16    1
     6    16     1    1
     7     1     2    1
     8     2     3   ar
     9     3     4   ar
    10     4     5   ar
    11     5     6   ar
    12     6     7   ar
    13     7     8    1
    14     8     9    1
    15     9    10   ar
    16    10    11   ar
    17    11    12   ar
    18    12    13    1
    19    12    14   ar
    20    14    15   ar
    21    15     1    1
    22     7     2   ar
    23    15     9   ar
@<TRIPOS>MOLECULE
*****
 21 23 0 0 0
SMALL
GASTEIGER

@<TRIPOS>ATOM
      1 N         141.6730  138.9428  164.4713 N.pl3   1  UNL1       -0.2860
      2 C         140.3988  138.7461  165.2382 C.ar    1  UNL1        0.0576
      3 C         139.5552  137.5306  164.9919 C.ar    1  UNL1        0.0153
      4 C         138.2812  137.3340  165.7588 C.ar    1  UNL1        0.0013
      5 C         137.8507  138.3530  166.7719 C.ar    1  UNL1        0.0006
      6 C         138.6943  139.5686  167.0181 C.ar    1  UNL1        0.0077
      7 C         139.9684  139.7652  166.2512 C.ar    1  UNL1        0.0431
      8 S         140.8120  140.9808  166.4974 S.3     1  UNL1       -0.0844
      9 C         142.0861  141.1773  165.7306 C.ar    1  UNL1        0.0431
     10 C         142.9298  142.3930  165.9768 C.ar    1  UNL1        0.0086
     11 C         144.2038  142.5895  165.2100 C.ar    1  UNL1        0.0120
     12 C         144.6343  141.5705  164.1969 C.ar    1  UNL1        0.0589
     13 CL        145.9083  141.7671  163.4300 Cl      1  UNL1       -0.0822
     14 C         143.7907  140.3549  163.9507 C.ar    1  UNL1        0.0267
     15 C         142.5166  140.1583  164.7175 C.ar    1  UNL1        0.0585
     16 C         142.1034  137.9237  163.4582 C.3     1  UNL1        0.0970
     17 C         141.5043  137.9337  162.0832 C.3     1  UNL1        0.0391
     18 C         140.8356  139.1726  161.5653 C.3     1  UNL1        0.0739
     19 C         138.9371  140.7149  162.4411 C.3     1  UNL1        0.0897
     20 N         139.3814  139.4124  161.8444 N.3     1  UNL1       -0.2703
     21 C         138.3716  138.3497  161.5267 C.3     1  UNL1        0.0897
@<TRIPOS>BOND
     1    19    20    1
     2    20    21    1
     3    20    18    1
     4    18    17    1
     5    17    16    1
     6    16     1    1
     7     1     2    1
     8     2     3   ar
     9     3     4   ar
    10     4     5   ar
    11     5     6   ar
    12     6     7   ar
    13     7     8    1
    14     8     9    1
    15     9    10   ar
    16    10    11   ar
    17    11    12   ar
    18    12    13    1
    19    12    14   ar
    20    14    15   ar
    21    15     1    1
    22     7     2   ar
    23    15     9   ar
@<TRIPOS>MOLECULE
*****
 21 23 0 0 0
SMALL
GASTEIGER

@<TRIPOS>ATOM
      1 N         140.5063  141.2528  165.5053 N.pl3   1  UNL1       -0.2860
      2 C         140.0449  140.0461  164.7430 C.ar    1  UNL1        0.0576
      3 C         140.3178  139.9387  163.2720 C.ar    1  UNL1        0.0153
      4 C         139.8565  138.7320  162.5098 C.ar    1  UNL1        0.0013
      5 C         139.1223  137.6327  163.2186 C.ar    1  UNL1        0.0006
      6 C         138.8494  137.7401  164.6897 C.ar    1  UNL1        0.0077
      7 C         139.3107  138.9468  165.4519 C.ar    1  UNL1        0.0431
      8 S         139.0378  139.0542  166.9230 S.3     1  UNL1       -0.0844
      9 C         139.4991  140.2609  167.6852 C.ar    1  UNL1        0.0431
     10 C         139.2262  140.3684  169.1563 C.ar    1  UNL1        0.0086
     11 C         139.6876  141.5751  169.9185 C.ar    1  UNL1        0.0120
     12 C         140.4218  142.6744  169.2097 C.ar    1  UNL1        0.0589
     13 CL        140.8831  143.8811  169.9719 Cl      1  UNL1       -0.0822
     14 C         140.6947  142.5670  167.7386 C.ar    1  UNL1        0.0267
     15 C         140.2334  141.3602  166.9763 C.ar    1  UNL1        0.0585
     16 C         141.2405  142.3522  164.7965 C.3     1  UNL1        0.0970
     17 C         142.7144  142.2299  164.5465 C.3     1  UNL1        0.0391
     18 C         143.5544  141.3532  165.4274 C.3     1  UNL1        0.0739
     19 C         143.2837  138.8468  166.0557 C.3     1  UNL1        0.0897
     20 N         143.7337  139.9027  165.0899 N.3     1  UNL1       -0.2703
     21 C         144.3628  139.5080  163.7867 C.3     1  UNL1        0.0897
@<TRIPOS>BOND
     1    19    20    1
     2    20    21    1
     3    20    18    1
     4    18    17    1
     5    17    16    1
     6    16     1    1
     7     1     2    1
     8     2     3   ar
     9     3     4   ar
    10     4     5   ar
    11     5     6   ar
    12     6     7   ar
    13     7     8    1
    14     8     9    1
    15     9    10   ar
    16    10    11   ar
    17    11    12   ar
    18    12    13    1
    19    12    14   ar
    20    14    15   ar
    21    15     1    1
    22     7     2   ar
    23    15     9   ar
@<TRIPOS>MOLECULE
*****
 21 23 0 0 0
SMALL
GASTEIGER

@<TRIPOS>ATOM
      1 N         140.4245  141.7561  164.9410 N.pl3   1  UNL1       -0.2860
      2 C         139.9276  140.3463  165.0667 C.ar    1  UNL1        0.0576
      3 C         138.6506  140.0639  165.8011 C.ar    1  UNL1        0.0153
      4 C         138.1537  138.6542  165.9268 C.ar    1  UNL1        0.0013
      5 C         138.9339  137.5269  165.3181 C.ar    1  UNL1        0.0006
      6 C         140.2109  137.8093  164.5836 C.ar    1  UNL1        0.0077
      7 C         140.7077  139.2190  164.4580 C.ar    1  UNL1        0.0431
      8 S         141.9848  139.5015  163.7235 S.3     1  UNL1       -0.0844
      9 C         142.4817  140.9112  163.5979 C.ar    1  UNL1        0.0431
     10 C         143.7588  141.1937  162.8634 C.ar    1  UNL1        0.0086
     11 C         144.2556  142.6034  162.7377 C.ar    1  UNL1        0.0120
     12 C         143.4754  143.7307  163.3465 C.ar    1  UNL1        0.0589
     13 CL        143.9723  145.1404  163.2208 Cl      1  UNL1       -0.0822
     14 C         142.1984  143.4483  164.0809 C.ar    1  UNL1        0.0267
     15 C         141.7015  142.0385  164.2066 C.ar    1  UNL1        0.0585
     16 C         139.6443  142.8834  165.5498 C.3     1  UNL1        0.0970
     17 C         138.5289  143.5253  164.7794 C.3     1  UNL1        0.0391
     18 C         138.7707  144.8052  164.0354 C.3     1  UNL1        0.0739
     19 C         139.8557  145.9870  161.9918 C.3     1  UNL1        0.0897
     20 N         139.2398  144.7675  162.6110 N.3     1  UNL1       -0.2703
     21 C         139.0929  143.5104  161.8061 C.3     1  UNL1        0.0897
@<TRIPOS>BOND
     1    19    20    1
     2    20    21    1
     3    20    18    1
     4    18    17    1
     5    17    16    1
     6    16     1    1
     7     1     2    1
     8     2     3   ar
     9     3     4   ar
    10     4     5   ar
    11     5     6   ar
    12     6     7   ar
    13     7     8    1
    14     8     9    1
    15     9    10   ar
    16    10    11   ar
    17    11    12   ar
    18    12    13    1
    19    12    14   ar
    20    14    15   ar
    21    15     1    1
    22     7     2   ar
    23    15     9   ar
