@<TRIPOS>MOLECULE
*****
 41 44 0 0 0
SMALL
GASTEIGER

@<TRIPOS>ATOM
      1 C         144.7925  137.6556  166.4750 C.3     1  UNL1        0.0521
      2 C         143.5824  138.3942  166.9650 C.ar    1  UNL1        0.0601
      3 N         143.2879  138.4600  168.4342 N.ar    1  UNL1       -0.2541
      4 C         142.0777  139.1986  168.9242 C.ar    1  UNL1        0.0588
      5 C         141.7832  139.2644  170.3936 C.3     1  UNL1        0.0519
      6 C         141.1621  139.8712  167.9449 C.ar    1  UNL1        0.0368
      7 C         141.4566  139.8054  166.4756 C.ar    1  UNL1        0.0487
      8 C         142.6668  139.0668  165.9856 C.ar    1  UNL1        0.0267
      9 N         140.5409  140.4780  165.4962 N.pl3   1  UNL1       -0.3076
     10 C         140.8316  141.8757  165.0358 C.3     1  UNL1        0.0908
     11 C         139.9159  142.5484  164.0564 C.3     1  UNL1        0.0215
     12 C         138.7097  141.8233  163.5375 C.3     1  UNL1        0.0033
     13 C         137.4528  141.5508  162.7656 C.3     1  UNL1        0.0001
     14 C         138.5638  143.1264  162.8090 C.3     1  UNL1        0.0001
     15 C         138.4191  140.4256  163.9980 C.3     1  UNL1        0.0215
     16 C         139.3347  139.7530  164.9773 C.3     1  UNL1        0.0908
     17 C         142.9613  139.0010  164.5163 C.ar    1  UNL1        0.0025
     18 C         142.1621  138.0910  163.6312 C.ar    1  UNL1        0.0032
     19 C         142.4566  138.0251  162.1619 C.ar    1  UNL1        0.0369
     20 C         143.5502  138.8693  161.5776 C.ar    1  UNL1        0.1386
     21 C         144.3493  139.7793  162.4626 C.ar    1  UNL1        0.0369
     22 C         144.0548  139.8451  163.9320 C.ar    1  UNL1        0.0032
     23 O         143.8447  138.8034  160.1083 O.3     1  UNL1       -0.4751
     24 C         143.2750  139.8367  159.1821 C.3     1  UNL1        0.2101
     25 C         143.8967  141.1996  159.1056 C.3     1  UNL1        0.0736
     26 C         143.5815  142.2276  160.1515 C.ar    1  UNL1       -0.0183
     27 C         142.1963  142.7938  160.2531 C.ar    1  UNL1       -0.0018
     28 C         141.8810  143.8217  161.2990 C.ar    1  UNL1        0.0293
     29 C         142.9511  144.2836  162.2432 C.ar    1  UNL1        0.1401
     30 F         142.6359  145.3115  163.2891 F       1  UNL1       -0.2042
     31 C         144.3365  143.7174  162.1416 C.ar    1  UNL1        0.0293
     32 C         144.6517  142.6894  161.0957 C.ar    1  UNL1       -0.0018
     33 C         139.9519  140.6098  168.4349 C.3     1  UNL1        0.1756
     34 C         138.7287  139.8500  168.8549 C.2     1  UNL1        0.0816
     35 O         138.0429  138.9361  167.8829 O.co2   1  UNL1       -0.5464
     36 O         138.1911  140.0041  170.2467 O.co2   1  UNL1       -0.5464
     37 O         139.9650  142.1080  168.5050 O.3     1  UNL1       -0.3509
     38 C         140.9207  142.8075  169.4255 C.3     1  UNL1        0.0938
     39 C         139.8655  142.8473  170.4908 C.3     1  UNL1        0.0297
     40 C         141.9759  142.7677  168.3602 C.3     1  UNL1        0.0297
     41 C         141.8764  143.5070  170.3460 C.3     1  UNL1        0.0297
@<TRIPOS>UNITY_ATOM_ATTR
35 1
charge -1
@<TRIPOS>BOND
     1     1     2    1
     2     2     3   ar
     3     3     4   ar
     4     4     5    1
     5     4     6   ar
     6     6    33    1
     7    33    37    1
     8    37    38    1
     9    38    39    1
    10    38    40    1
    11    38    41    1
    12    33    34    1
    13    34    35   ar
    14    34    36   ar
    15     6     7   ar
    16     7     9    1
    17     9    10    1
    18    10    11    1
    19    11    12    1
    20    12    13    1
    21    12    14    1
    22    12    15    1
    23    15    16    1
    24     7     8   ar
    25     8    17    1
    26    17    18   ar
    27    18    19   ar
    28    19    20   ar
    29    20    23    1
    30    23    24    1
    31    24    25    1
    32    25    26    1
    33    26    27   ar
    34    27    28   ar
    35    28    29   ar
    36    29    30    1
    37    29    31   ar
    38    31    32   ar
    39    20    21   ar
    40    21    22   ar
    41     8     2   ar
    42    22    17   ar
    43    16     9    1
    44    32    26   ar
@<TRIPOS>MOLECULE
*****
 41 44 0 0 0
SMALL
GASTEIGER

@<TRIPOS>ATOM
      1 C         142.6225  137.6356  160.7040 C.3     1  UNL1        0.0521
      2 C         142.6579  139.1343  160.7563 C.ar    1  UNL1        0.0601
      3 N         143.5428  139.8969  159.8155 N.ar    1  UNL1       -0.2541
      4 C         143.5782  141.3956  159.8678 C.ar    1  UNL1        0.0588
      5 C         144.4632  142.1582  158.9269 C.3     1  UNL1        0.0519
      6 C         142.7286  142.1317  160.8609 C.ar    1  UNL1        0.0368
      7 C         141.8436  141.3690  161.8017 C.ar    1  UNL1        0.0487
      8 C         141.8083  139.8704  161.7494 C.ar    1  UNL1        0.0267
      9 N         140.9940  142.1051  162.7949 N.pl3   1  UNL1       -0.3076
     10 C         141.4463  142.2338  164.2193 C.3     1  UNL1        0.0908
     11 C         140.5967  142.9699  165.2124 C.3     1  UNL1        0.0215
     12 C         139.2946  143.5772  164.7812 C.3     1  UNL1        0.0033
     13 C         137.9927  144.3186  164.8534 C.3     1  UNL1        0.0001
     14 C         139.2949  143.9634  166.2306 C.3     1  UNL1        0.0001
     15 C         138.8423  143.4484  163.3568 C.3     1  UNL1        0.0215
     16 C         139.6920  142.7124  162.3637 C.3     1  UNL1        0.0908
     17 C         140.9232  139.1078  162.6904 C.ar    1  UNL1        0.0025
     18 C         141.5090  138.4525  163.9059 C.ar    1  UNL1        0.0032
     19 C         140.6240  137.6899  164.8468 C.ar    1  UNL1        0.0369
     20 C         139.1533  137.5826  164.5721 C.ar    1  UNL1        0.1386
     21 C         138.5675  138.2378  163.3566 C.ar    1  UNL1        0.0369
     22 C         139.4525  139.0005  162.4157 C.ar    1  UNL1        0.0032
     23 O         138.2683  136.8200  165.5130 O.3     1  UNL1       -0.4751
     24 C         137.7597  137.4763  166.7623 C.3     1  UNL1        0.2101
     25 C         137.8054  138.9695  166.8969 C.3     1  UNL1        0.0736
     26 C         138.8396  139.6122  167.7729 C.ar    1  UNL1       -0.0183
     27 C         140.1640  140.0170  167.1966 C.ar    1  UNL1       -0.0018
     28 C         141.1982  140.6597  168.0726 C.ar    1  UNL1        0.0293
     29 C         140.9080  140.8977  169.5249 C.ar    1  UNL1        0.1401
     30 F         141.9422  141.5404  170.4008 F       1  UNL1       -0.2042
     31 C         139.5836  140.4929  170.1012 C.ar    1  UNL1        0.0293
     32 C         138.5494  139.8502  169.2253 C.ar    1  UNL1       -0.0018
     33 C         142.7640  143.6303  160.9132 C.3     1  UNL1        0.1756
     34 C         141.7040  144.4303  160.2158 C.2     1  UNL1        0.0816
     35 O         140.9445  145.4842  160.9659 O.co2   1  UNL1       -0.5464
     36 O         141.4035  144.1765  158.7683 O.co2   1  UNL1       -0.5464
     37 O         143.8593  144.3290  161.6629 O.3     1  UNL1       -0.3509
     38 C         144.0372  144.0839  163.1320 C.3     1  UNL1        0.0938
     39 C         143.1146  145.2274  163.4344 C.3     1  UNL1        0.0297
     40 C         144.9597  142.9405  162.8295 C.3     1  UNL1        0.0297
     41 C         144.2150  143.8388  164.6011 C.3     1  UNL1        0.0297
@<TRIPOS>UNITY_ATOM_ATTR
35 1
charge -1
@<TRIPOS>BOND
     1     1     2    1
     2     2     3   ar
     3     3     4   ar
     4     4     5    1
     5     4     6   ar
     6     6    33    1
     7    33    37    1
     8    37    38    1
     9    38    39    1
    10    38    40    1
    11    38    41    1
    12    33    34    1
    13    34    35   ar
    14    34    36   ar
    15     6     7   ar
    16     7     9    1
    17     9    10    1
    18    10    11    1
    19    11    12    1
    20    12    13    1
    21    12    14    1
    22    12    15    1
    23    15    16    1
    24     7     8   ar
    25     8    17    1
    26    17    18   ar
    27    18    19   ar
    28    19    20   ar
    29    20    23    1
    30    23    24    1
    31    24    25    1
    32    25    26    1
    33    26    27   ar
    34    27    28   ar
    35    28    29   ar
    36    29    30    1
    37    29    31   ar
    38    31    32   ar
    39    20    21   ar
    40    21    22   ar
    41     8     2   ar
    42    22    17   ar
    43    16     9    1
    44    32    26   ar
@<TRIPOS>MOLECULE
*****
 41 44 0 0 0
SMALL
GASTEIGER

@<TRIPOS>ATOM
      1 C         144.7156  137.8212  166.2314 C.3     1  UNL1        0.0521
      2 C         143.5146  138.5249  166.7903 C.ar    1  UNL1        0.0601
      3 N         143.2915  138.5652  168.2731 N.ar    1  UNL1       -0.2541
      4 C         142.0905  139.2689  168.8320 C.ar    1  UNL1        0.0588
      5 C         141.8675  139.3092  170.3148 C.3     1  UNL1        0.0519
      6 C         141.1126  139.9323  167.9082 C.ar    1  UNL1        0.0368
      7 C         141.3356  139.8920  166.4254 C.ar    1  UNL1        0.0487
      8 C         142.5367  139.1883  165.8665 C.ar    1  UNL1        0.0267
      9 N         140.3577  140.5554  165.5015 N.pl3   1  UNL1       -0.3076
     10 C         140.5649  141.9827  165.0894 C.3     1  UNL1        0.0908
     11 C         139.5869  142.6461  164.1655 C.3     1  UNL1        0.0215
     12 C         138.4018  141.8822  163.6537 C.3     1  UNL1        0.0033
     13 C         137.1360  141.5771  162.9091 C.3     1  UNL1        0.0001
     14 C         138.1694  143.2035  162.9830 C.3     1  UNL1        0.0001
     15 C         138.1946  140.4548  164.0659 C.3     1  UNL1        0.0215
     16 C         139.1725  139.7915  164.9898 C.3     1  UNL1        0.0908
     17 C         142.7597  139.1480  164.3837 C.ar    1  UNL1        0.0025
     18 C         143.6220  140.1847  163.7265 C.ar    1  UNL1        0.0032
     19 C         143.8450  140.1444  162.2438 C.ar    1  UNL1        0.0369
     20 C         143.2058  139.0675  161.4181 C.ar    1  UNL1        0.1386
     21 C         142.3435  138.0308  162.0752 C.ar    1  UNL1        0.0369
     22 C         142.1205  138.0711  163.5581 C.ar    1  UNL1        0.0032
     23 O         143.4289  139.0273  159.9354 O.3     1  UNL1       -0.4751
     24 C         142.8465  137.9115  159.1193 C.3     1  UNL1        0.2101
     25 C         141.5576  138.1168  158.3799 C.3     1  UNL1        0.0736
     26 C         140.6668  139.2711  158.7317 C.ar    1  UNL1       -0.0183
     27 C         139.4801  139.0580  159.6240 C.ar    1  UNL1       -0.0018
     28 C         138.5892  140.2123  159.9758 C.ar    1  UNL1        0.0293
     29 C         138.8850  141.5799  159.4353 C.ar    1  UNL1        0.1401
     30 F         137.9941  142.7343  159.7871 F       1  UNL1       -0.2042
     31 C         140.0718  141.7931  158.5429 C.ar    1  UNL1        0.0293
     32 C         140.9626  140.6388  158.1912 C.ar    1  UNL1       -0.0018
     33 C         139.9116  140.6360  168.4671 C.3     1  UNL1        0.1756
     34 C         138.7207  139.8436  168.9186 C.2     1  UNL1        0.0816
     35 O         138.2313  139.9642  170.3314 O.co2   1  UNL1       -0.5464
     36 O         138.0191  138.9305  167.9573 O.co2   1  UNL1       -0.5464
     37 O         139.9014  142.1321  168.5745 O.3     1  UNL1       -0.3509
     38 C         140.8859  142.8265  169.4681 C.3     1  UNL1        0.0938
     39 C         141.9024  142.8045  168.3653 C.3     1  UNL1        0.0297
     40 C         139.8695  142.8485  170.5709 C.3     1  UNL1        0.0297
     41 C         141.8705  143.5210  170.3617 C.3     1  UNL1        0.0297
@<TRIPOS>UNITY_ATOM_ATTR
35 1
charge -1
@<TRIPOS>BOND
     1     1     2    1
     2     2     3   ar
     3     3     4   ar
     4     4     5    1
     5     4     6   ar
     6     6    33    1
     7    33    37    1
     8    37    38    1
     9    38    39    1
    10    38    40    1
    11    38    41    1
    12    33    34    1
    13    34    35   ar
    14    34    36   ar
    15     6     7   ar
    16     7     9    1
    17     9    10    1
    18    10    11    1
    19    11    12    1
    20    12    13    1
    21    12    14    1
    22    12    15    1
    23    15    16    1
    24     7     8   ar
    25     8    17    1
    26    17    18   ar
    27    18    19   ar
    28    19    20   ar
    29    20    23    1
    30    23    24    1
    31    24    25    1
    32    25    26    1
    33    26    27   ar
    34    27    28   ar
    35    28    29   ar
    36    29    30    1
    37    29    31   ar
    38    31    32   ar
    39    20    21   ar
    40    21    22   ar
    41     8     2   ar
    42    22    17   ar
    43    16     9    1
    44    32    26   ar
@<TRIPOS>MOLECULE
*****
 41 44 0 0 0
SMALL
GASTEIGER

@<TRIPOS>ATOM
      1 C         142.1846  137.9703  159.0960 C.3     1  UNL1        0.0521
      2 C         141.8375  139.4227  158.9535 C.ar    1  UNL1        0.0601
      3 N         142.1879  140.1574  157.6936 N.ar    1  UNL1       -0.2541
      4 C         141.8408  141.6098  157.5512 C.ar    1  UNL1        0.0588
      5 C         142.1913  142.3445  156.2912 C.3     1  UNL1        0.0519
      6 C         141.1433  142.3273  158.6685 C.ar    1  UNL1        0.0368
      7 C         140.7929  141.5925  159.9284 C.ar    1  UNL1        0.0487
      8 C         141.1400  140.1402  160.0709 C.ar    1  UNL1        0.0267
      9 N         140.0954  142.3101  161.0459 N.pl3   1  UNL1       -0.3076
     10 C         138.5967  142.3487  161.0923 C.3     1  UNL1        0.0908
     11 C         137.8991  143.0663  162.2097 C.3     1  UNL1        0.0215
     12 C         138.7004  143.7451  163.2808 C.3     1  UNL1        0.0033
     13 C         139.0197  144.5323  164.5170 C.3     1  UNL1        0.0001
     14 C         137.3125  144.0572  163.7565 C.3     1  UNL1        0.0001
     15 C         140.1993  143.7064  163.2343 C.3     1  UNL1        0.0215
     16 C         140.8967  142.9889  162.1169 C.3     1  UNL1        0.0908
     17 C         140.7896  139.4054  161.3308 C.ar    1  UNL1        0.0025
     18 C         141.7428  139.4057  162.4890 C.ar    1  UNL1        0.0032
     19 C         141.3925  138.6710  163.7489 C.ar    1  UNL1        0.0369
     20 C         140.0888  137.9359  163.8507 C.ar    1  UNL1        0.1386
     21 C         139.1356  137.9357  162.6925 C.ar    1  UNL1        0.0369
     22 C         139.4860  138.6705  161.4325 C.ar    1  UNL1        0.0032
     23 O         139.7384  137.2012  165.1105 O.3     1  UNL1       -0.4751
     24 C         138.5408  137.6165  165.9126 C.3     1  UNL1        0.2101
     25 C         138.1671  139.0661  166.0068 C.3     1  UNL1        0.0736
     26 C         139.0737  140.0299  166.7133 C.ar    1  UNL1       -0.0183
     27 C         139.7516  141.1241  165.9432 C.ar    1  UNL1       -0.0018
     28 C         140.6581  142.0879  166.6498 C.ar    1  UNL1        0.0293
     29 C         140.8868  141.9575  168.1264 C.ar    1  UNL1        0.1401
     30 F         141.7934  142.9213  168.8330 F       1  UNL1       -0.2042
     31 C         140.2089  140.8633  168.8967 C.ar    1  UNL1        0.0293
     32 C         139.3024  139.8994  168.1901 C.ar    1  UNL1       -0.0018
     33 C         140.7962  143.7796  158.5261 C.3     1  UNL1        0.1756
     34 C         141.8139  144.8301  158.8588 C.2     1  UNL1        0.0816
     35 O         142.5002  145.5846  157.7589 O.co2   1  UNL1       -0.5464
     36 O         142.1454  145.1261  160.2915 O.co2   1  UNL1       -0.5464
     37 O         139.4315  144.1815  158.0508 O.3     1  UNL1       -0.3509
     38 C         138.9173  143.6782  156.7347 C.3     1  UNL1        0.0938
     39 C         139.6588  144.7729  156.0264 C.3     1  UNL1        0.0297
     40 C         138.1758  142.5834  157.4429 C.3     1  UNL1        0.0297
     41 C         138.4031  143.1749  155.4185 C.3     1  UNL1        0.0297
@<TRIPOS>UNITY_ATOM_ATTR
35 1
charge -1
@<TRIPOS>BOND
     1     1     2    1
     2     2     3   ar
     3     3     4   ar
     4     4     5    1
     5     4     6   ar
     6     6    33    1
     7    33    37    1
     8    37    38    1
     9    38    39    1
    10    38    40    1
    11    38    41    1
    12    33    34    1
    13    34    35   ar
    14    34    36   ar
    15     6     7   ar
    16     7     9    1
    17     9    10    1
    18    10    11    1
    19    11    12    1
    20    12    13    1
    21    12    14    1
    22    12    15    1
    23    15    16    1
    24     7     8   ar
    25     8    17    1
    26    17    18   ar
    27    18    19   ar
    28    19    20   ar
    29    20    23    1
    30    23    24    1
    31    24    25    1
    32    25    26    1
    33    26    27   ar
    34    27    28   ar
    35    28    29   ar
    36    29    30    1
    37    29    31   ar
    38    31    32   ar
    39    20    21   ar
    40    21    22   ar
    41     8     2   ar
    42    22    17   ar
    43    16     9    1
    44    32    26   ar
@<TRIPOS>MOLECULE
*****
 41 44 0 0 0
SMALL
GASTEIGER

@<TRIPOS>ATOM
      1 C         137.4137  139.8748  160.3320 C.3     1  UNL1        0.0521
      2 C         138.6271  140.6869  159.9882 C.ar    1  UNL1        0.0601
      3 N         138.8502  141.1411  158.5761 N.ar    1  UNL1       -0.2541
      4 C         140.0636  141.9532  158.2324 C.ar    1  UNL1        0.0588
      5 C         140.2867  142.4074  156.8202 C.3     1  UNL1        0.0519
      6 C         141.0538  142.3112  159.3007 C.ar    1  UNL1        0.0368
      7 C         140.8307  141.8571  160.7127 C.ar    1  UNL1        0.0487
      8 C         139.6173  141.0449  161.0565 C.ar    1  UNL1        0.0267
      9 N         141.8209  142.2151  161.7811 N.pl3   1  UNL1       -0.3076
     10 C         142.9429  141.2752  162.1091 C.3     1  UNL1        0.0908
     11 C         143.9331  141.6332  163.1775 C.3     1  UNL1        0.0215
     12 C         143.8013  142.9311  163.9177 C.3     1  UNL1        0.0033
     13 C         144.0945  144.0358  164.8891 C.3     1  UNL1        0.0001
     14 C         145.0252  142.3749  164.5831 C.3     1  UNL1        0.0001
     15 C         142.6792  143.8710  163.5897 C.3     1  UNL1        0.0215
     16 C         141.6891  143.5130  162.5213 C.3     1  UNL1        0.0908
     17 C         139.3942  140.5908  162.4686 C.ar    1  UNL1        0.0025
     18 C         138.6847  141.4858  163.4410 C.ar    1  UNL1        0.0032
     19 C         138.4616  141.0317  164.8531 C.ar    1  UNL1        0.0369
     20 C         138.9480  139.6825  165.2928 C.ar    1  UNL1        0.1386
     21 C         139.6574  138.7875  164.3204 C.ar    1  UNL1        0.0369
     22 C         139.8805  139.2417  162.9082 C.ar    1  UNL1        0.0032
     23 O         138.7248  139.2285  166.7049 O.3     1  UNL1       -0.4751
     24 C         139.3302  139.9946  167.8436 C.3     1  UNL1        0.2101
     25 C         140.7961  139.8703  168.1358 C.3     1  UNL1        0.0736
     26 C         141.5031  140.9513  168.8985 C.ar    1  UNL1       -0.0183
     27 C         140.7507  142.1702  169.3434 C.ar    1  UNL1       -0.0018
     28 C         141.4577  143.2512  170.1061 C.ar    1  UNL1        0.0293
     29 C         142.9171  143.1132  170.4238 C.ar    1  UNL1        0.1401
     30 F         143.6241  144.1942  171.1865 F       1  UNL1       -0.2042
     31 C         143.6696  141.8942  169.9789 C.ar    1  UNL1        0.0293
     32 C         142.9626  140.8133  169.2162 C.ar    1  UNL1       -0.0018
     33 C         142.2671  143.1234  158.9569 C.3     1  UNL1        0.1756
     34 C         143.5174  142.4414  158.4860 C.2     1  UNL1        0.0816
     35 O         144.7551  142.4760  159.3328 O.co2   1  UNL1       -0.5464
     36 O         143.5300  141.7249  157.1682 O.co2   1  UNL1       -0.5464
     37 O         142.2303  144.6175  159.0840 O.3     1  UNL1       -0.3509
     38 C         141.2451  145.4145  158.2813 C.3     1  UNL1        0.0938
     39 C         142.1681  145.3653  157.0999 C.3     1  UNL1        0.0297
     40 C         140.3222  145.4636  159.4628 C.3     1  UNL1        0.0297
     41 C         140.2600  146.2114  157.4786 C.3     1  UNL1        0.0297
@<TRIPOS>UNITY_ATOM_ATTR
35 1
charge -1
@<TRIPOS>BOND
     1     1     2    1
     2     2     3   ar
     3     3     4   ar
     4     4     5    1
     5     4     6   ar
     6     6    33    1
     7    33    37    1
     8    37    38    1
     9    38    39    1
    10    38    40    1
    11    38    41    1
    12    33    34    1
    13    34    35   ar
    14    34    36   ar
    15     6     7   ar
    16     7     9    1
    17     9    10    1
    18    10    11    1
    19    11    12    1
    20    12    13    1
    21    12    14    1
    22    12    15    1
    23    15    16    1
    24     7     8   ar
    25     8    17    1
    26    17    18   ar
    27    18    19   ar
    28    19    20   ar
    29    20    23    1
    30    23    24    1
    31    24    25    1
    32    25    26    1
    33    26    27   ar
    34    27    28   ar
    35    28    29   ar
    36    29    30    1
    37    29    31   ar
    38    31    32   ar
    39    20    21   ar
    40    21    22   ar
    41     8     2   ar
    42    22    17   ar
    43    16     9    1
    44    32    26   ar
@<TRIPOS>MOLECULE
*****
 41 44 0 0 0
SMALL
GASTEIGER

@<TRIPOS>ATOM
      1 C         140.1321  145.4132  157.9147 C.3     1  UNL1        0.0521
      2 C         140.9518  144.1677  157.7509 C.ar    1  UNL1        0.0601
      3 N         141.4667  143.7815  156.3961 N.ar    1  UNL1       -0.2541
      4 C         142.2864  142.5359  156.2324 C.ar    1  UNL1        0.0588
      5 C         142.8013  142.1497  154.8774 C.3     1  UNL1        0.0519
      6 C         142.5911  141.6767  157.4234 C.ar    1  UNL1        0.0368
      7 C         142.0762  142.0629  158.7783 C.ar    1  UNL1        0.0487
      8 C         141.2565  143.3084  158.9420 C.ar    1  UNL1        0.0267
      9 N         142.3809  141.2036  159.9694 N.pl3   1  UNL1       -0.3076
     10 C         143.6260  141.4457  160.7700 C.3     1  UNL1        0.0908
     11 C         143.9307  140.5863  161.9612 C.3     1  UNL1        0.0215
     12 C         142.9903  139.4850  162.3517 C.3     1  UNL1        0.0033
     13 C         142.4126  138.3281  163.1119 C.3     1  UNL1        0.0001
     14 C         144.0348  139.3253  163.4163 C.3     1  UNL1        0.0001
     15 C         141.7451  139.2429  161.5510 C.3     1  UNL1        0.0215
     16 C         141.4405  140.1022  160.3599 C.3     1  UNL1        0.0908
     17 C         140.7416  143.6946  160.2969 C.ar    1  UNL1        0.0025
     18 C         141.5715  144.5634  161.1950 C.ar    1  UNL1        0.0032
     19 C         141.0566  144.9496  162.5499 C.ar    1  UNL1        0.0369
     20 C         139.7118  144.4670  163.0067 C.ar    1  UNL1        0.1386
     21 C         138.8819  143.5983  162.1087 C.ar    1  UNL1        0.0369
     22 C         139.3968  143.2121  160.7537 C.ar    1  UNL1        0.0032
     23 O         139.1969  144.8533  164.3616 O.3     1  UNL1       -0.4751
     24 C         139.5124  144.0008  165.5548 C.3     1  UNL1        0.2101
     25 C         140.4262  142.8199  165.4124 C.3     1  UNL1        0.0736
     26 C         139.8723  141.4284  165.4970 C.ar    1  UNL1       -0.0183
     27 C         139.5569  140.6692  164.2424 C.ar    1  UNL1       -0.0018
     28 C         139.0031  139.2778  164.3270 C.ar    1  UNL1        0.0293
     29 C         138.7647  138.6456  165.6661 C.ar    1  UNL1        0.1401
     30 F         138.2108  137.2541  165.7507 F       1  UNL1       -0.2042
     31 C         139.0801  139.4048  166.9208 C.ar    1  UNL1        0.0293
     32 C         139.6339  140.7962  166.8362 C.ar    1  UNL1       -0.0018
     33 C         143.4108  140.4311  157.2597 C.3     1  UNL1        0.1756
     34 C         142.7488  139.1441  156.8657 C.2     1  UNL1        0.0816
     35 O         143.5599  137.8871  156.7537 O.co2   1  UNL1       -0.5464
     36 O         141.2759  139.1138  156.5838 O.co2   1  UNL1       -0.5464
     37 O         144.8924  140.4727  157.4899 O.3     1  UNL1       -0.3509
     38 C         145.7543  141.3826  156.6657 C.3     1  UNL1        0.0938
     39 C         145.7079  142.4130  157.7548 C.3     1  UNL1        0.0297
     40 C         145.8006  140.3522  155.5766 C.3     1  UNL1        0.0297
     41 C         146.6161  142.2925  155.8415 C.3     1  UNL1        0.0297
@<TRIPOS>UNITY_ATOM_ATTR
35 1
charge -1
@<TRIPOS>BOND
     1     1     2    1
     2     2     3   ar
     3     3     4   ar
     4     4     5    1
     5     4     6   ar
     6     6    33    1
     7    33    37    1
     8    37    38    1
     9    38    39    1
    10    38    40    1
    11    38    41    1
    12    33    34    1
    13    34    35   ar
    14    34    36   ar
    15     6     7   ar
    16     7     9    1
    17     9    10    1
    18    10    11    1
    19    11    12    1
    20    12    13    1
    21    12    14    1
    22    12    15    1
    23    15    16    1
    24     7     8   ar
    25     8    17    1
    26    17    18   ar
    27    18    19   ar
    28    19    20   ar
    29    20    23    1
    30    23    24    1
    31    24    25    1
    32    25    26    1
    33    26    27   ar
    34    27    28   ar
    35    28    29   ar
    36    29    30    1
    37    29    31   ar
    38    31    32   ar
    39    20    21   ar
    40    21    22   ar
    41     8     2   ar
    42    22    17   ar
    43    16     9    1
    44    32    26   ar
@<TRIPOS>MOLECULE
*****
 41 44 0 0 0
SMALL
GASTEIGER

@<TRIPOS>ATOM
      1 C         139.9825  145.1466  157.7472 C.3     1  UNL1        0.0521
      2 C         141.2136  144.2924  157.6793 C.ar    1  UNL1        0.0601
      3 N         141.9094  144.0824  156.3672 N.ar    1  UNL1       -0.2541
      4 C         143.1405  143.2282  156.2993 C.ar    1  UNL1        0.0588
      5 C         143.8364  143.0183  154.9871 C.3     1  UNL1        0.0519
      6 C         143.6758  142.5839  157.5436 C.ar    1  UNL1        0.0368
      7 C         142.9800  142.7938  158.8557 C.ar    1  UNL1        0.0487
      8 C         141.7489  143.6480  158.9236 C.ar    1  UNL1        0.0267
      9 N         143.5153  142.1494  160.1001 N.pl3   1  UNL1       -0.3076
     10 C         144.5199  142.8732  160.9468 C.3     1  UNL1        0.0908
     11 C         145.0552  142.2288  162.1911 C.3     1  UNL1        0.0215
     12 C         144.5858  140.8607  162.5887 C.3     1  UNL1        0.0033
     13 C         144.4488  139.5909  163.3752 C.3     1  UNL1        0.0001
     14 C         145.5429  141.1435  163.7086 C.3     1  UNL1        0.0001
     15 C         143.5812  140.1370  161.7420 C.3     1  UNL1        0.0215
     16 C         143.0459  140.7814  160.4977 C.3     1  UNL1        0.0908
     17 C         141.0531  143.8580  160.2358 C.ar    1  UNL1        0.0025
     18 C         141.4698  144.9848  161.1338 C.ar    1  UNL1        0.0032
     19 C         140.7741  145.1948  162.4460 C.ar    1  UNL1        0.0369
     20 C         139.6615  144.2778  162.8602 C.ar    1  UNL1        0.1386
     21 C         139.2448  143.1510  161.9621 C.ar    1  UNL1        0.0369
     22 C         139.9406  142.9410  160.6499 C.ar    1  UNL1        0.0032
     23 O         138.9658  144.4878  164.1723 O.3     1  UNL1       -0.4751
     24 C         139.6271  144.0597  165.4488 C.3     1  UNL1        0.2101
     25 C         140.3884  142.7685  165.5028 C.3     1  UNL1        0.0736
     26 C         139.6866  141.4995  165.8863 C.ar    1  UNL1       -0.0183
     27 C         138.7703  140.8244  164.9093 C.ar    1  UNL1       -0.0018
     28 C         138.0685  139.5554  165.2928 C.ar    1  UNL1        0.0293
     29 C         138.2831  138.9614  166.6534 C.ar    1  UNL1        0.1401
     30 F         137.5813  137.6924  167.0369 F       1  UNL1       -0.2042
     31 C         139.1994  139.6365  167.6305 C.ar    1  UNL1        0.0293
     32 C         139.9012  140.9055  167.2469 C.ar    1  UNL1       -0.0018
     33 C         144.9069  141.7296  157.4757 C.3     1  UNL1        0.1756
     34 C         146.2618  142.3702  157.4134 C.2     1  UNL1        0.0816
     35 O         147.1127  142.2077  156.1888 O.co2   1  UNL1       -0.5464
     36 O         146.7659  143.1733  158.5757 O.co2   1  UNL1       -0.5464
     37 O         144.7832  140.2348  157.4702 O.3     1  UNL1       -0.3509
     38 C         144.0097  139.5502  156.3825 C.3     1  UNL1        0.0938
     39 C         142.8275  139.4313  157.2980 C.3     1  UNL1        0.0297
     40 C         145.1919  139.6691  155.4669 C.3     1  UNL1        0.0297
     41 C         143.2361  138.8657  155.2948 C.3     1  UNL1        0.0297
@<TRIPOS>UNITY_ATOM_ATTR
35 1
charge -1
@<TRIPOS>BOND
     1     1     2    1
     2     2     3   ar
     3     3     4   ar
     4     4     5    1
     5     4     6   ar
     6     6    33    1
     7    33    37    1
     8    37    38    1
     9    38    39    1
    10    38    40    1
    11    38    41    1
    12    33    34    1
    13    34    35   ar
    14    34    36   ar
    15     6     7   ar
    16     7     9    1
    17     9    10    1
    18    10    11    1
    19    11    12    1
    20    12    13    1
    21    12    14    1
    22    12    15    1
    23    15    16    1
    24     7     8   ar
    25     8    17    1
    26    17    18   ar
    27    18    19   ar
    28    19    20   ar
    29    20    23    1
    30    23    24    1
    31    24    25    1
    32    25    26    1
    33    26    27   ar
    34    27    28   ar
    35    28    29   ar
    36    29    30    1
    37    29    31   ar
    38    31    32   ar
    39    20    21   ar
    40    21    22   ar
    41     8     2   ar
    42    22    17   ar
    43    16     9    1
    44    32    26   ar
@<TRIPOS>MOLECULE
*****
 41 44 0 0 0
SMALL
GASTEIGER

@<TRIPOS>ATOM
      1 C         137.3184  138.5677  161.2484 C.3     1  UNL1        0.0521
      2 C         138.1299  139.6296  160.5672 C.ar    1  UNL1        0.0601
      3 N         138.0567  139.7893  159.0775 N.ar    1  UNL1       -0.2541
      4 C         138.8682  140.8512  158.3964 C.ar    1  UNL1        0.0588
      5 C         138.7950  141.0109  156.9066 C.3     1  UNL1        0.0519
      6 C         139.7528  141.7532  159.2048 C.ar    1  UNL1        0.0368
      7 C         139.8260  141.5935  160.6945 C.ar    1  UNL1        0.0487
      8 C         139.0145  140.5317  161.3756 C.ar    1  UNL1        0.0267
      9 N         140.7106  142.4956  161.5030 N.pl3   1  UNL1       -0.3076
     10 C         140.1439  143.7326  162.1344 C.3     1  UNL1        0.0908
     11 C         141.0285  144.6347  162.9429 C.3     1  UNL1        0.0215
     12 C         142.4799  144.2998  163.1201 C.3     1  UNL1        0.0033
     13 C         143.9065  144.4074  163.5708 C.3     1  UNL1        0.0001
     14 C         142.4086  145.5741  163.9080 C.3     1  UNL1        0.0001
     15 C         143.0466  143.0627  162.4886 C.3     1  UNL1        0.0215
     16 C         142.1620  142.1607  161.6801 C.3     1  UNL1        0.0908
     17 C         139.0876  140.3719  162.8654 C.ar    1  UNL1        0.0025
     18 C         138.2248  141.2183  163.7537 C.ar    1  UNL1        0.0032
     19 C         138.2979  141.0587  165.2433 C.ar    1  UNL1        0.0369
     20 C         139.2339  140.0525  165.8448 C.ar    1  UNL1        0.1386
     21 C         140.0968  139.2062  164.9565 C.ar    1  UNL1        0.0369
     22 C         140.0237  139.3659  163.4667 C.ar    1  UNL1        0.0032
     23 O         139.3071  139.8929  167.3344 O.3     1  UNL1       -0.4751
     24 C         140.1746  140.8094  168.1453 C.3     1  UNL1        0.2101
     25 C         141.6113  140.4572  168.3937 C.3     1  UNL1        0.0736
     26 C         142.5149  140.1354  167.2405 C.ar    1  UNL1       -0.0183
     27 C         142.8433  141.1918  166.2276 C.ar    1  UNL1       -0.0018
     28 C         143.7469  140.8700  165.0743 C.ar    1  UNL1        0.0293
     29 C         144.3221  139.4918  164.9340 C.ar    1  UNL1        0.1401
     30 F         145.2257  139.1700  163.7808 F       1  UNL1       -0.2042
     31 C         143.9936  138.4353  165.9470 C.ar    1  UNL1        0.0293
     32 C         143.0900  138.7571  167.1002 C.ar    1  UNL1       -0.0018
     33 C         140.5643  142.8151  158.5236 C.3     1  UNL1        0.1756
     34 C         139.9380  144.1348  158.1832 C.2     1  UNL1        0.0816
     35 O         139.3359  144.3516  156.8265 O.co2   1  UNL1       -0.5464
     36 O         139.9137  145.2379  159.1995 O.co2   1  UNL1       -0.5464
     37 O         142.0021  142.5572  158.1829 O.3     1  UNL1       -0.3509
     38 C         142.3620  141.4479  157.2395 C.3     1  UNL1        0.0938
     39 C         142.0571  142.3407  156.0733 C.3     1  UNL1        0.0297
     40 C         142.6668  140.5550  158.4056 C.3     1  UNL1        0.0297
     41 C         142.7218  140.3386  156.2961 C.3     1  UNL1        0.0297
@<TRIPOS>UNITY_ATOM_ATTR
35 1
charge -1
@<TRIPOS>BOND
     1     1     2    1
     2     2     3   ar
     3     3     4   ar
     4     4     5    1
     5     4     6   ar
     6     6    33    1
     7    33    37    1
     8    37    38    1
     9    38    39    1
    10    38    40    1
    11    38    41    1
    12    33    34    1
    13    34    35   ar
    14    34    36   ar
    15     6     7   ar
    16     7     9    1
    17     9    10    1
    18    10    11    1
    19    11    12    1
    20    12    13    1
    21    12    14    1
    22    12    15    1
    23    15    16    1
    24     7     8   ar
    25     8    17    1
    26    17    18   ar
    27    18    19   ar
    28    19    20   ar
    29    20    23    1
    30    23    24    1
    31    24    25    1
    32    25    26    1
    33    26    27   ar
    34    27    28   ar
    35    28    29   ar
    36    29    30    1
    37    29    31   ar
    38    31    32   ar
    39    20    21   ar
    40    21    22   ar
    41     8     2   ar
    42    22    17   ar
    43    16     9    1
    44    32    26   ar
@<TRIPOS>MOLECULE
*****
 41 44 0 0 0
SMALL
GASTEIGER

@<TRIPOS>ATOM
      1 C         139.8876  146.3217  162.0048 C.3     1  UNL1        0.0521
      2 C         140.1714  145.3123  160.9322 C.ar    1  UNL1        0.0601
      3 N         139.9159  145.6541  159.4942 N.ar    1  UNL1       -0.2541
      4 C         140.1997  144.6447  158.4215 C.ar    1  UNL1        0.0588
      5 C         139.9442  144.9865  156.9835 C.3     1  UNL1        0.0519
      6 C         140.7391  143.2936  158.7868 C.ar    1  UNL1        0.0368
      7 C         140.9946  142.9519  160.2248 C.ar    1  UNL1        0.0487
      8 C         140.7108  143.9612  161.2975 C.ar    1  UNL1        0.0267
      9 N         141.5340  141.6007  160.5902 N.pl3   1  UNL1       -0.3076
     10 C         143.0145  141.3597  160.5926 C.3     1  UNL1        0.0908
     11 C         143.5539  140.0085  160.9580 C.3     1  UNL1        0.0215
     12 C         142.6127  138.8984  161.3210 C.3     1  UNL1        0.0033
     13 C         142.1272  137.5408  161.7347 C.3     1  UNL1        0.0001
     14 C         143.9246  138.1859  161.4671 C.3     1  UNL1        0.0001
     15 C         141.1322  139.1394  161.3186 C.3     1  UNL1        0.0215
     16 C         140.5929  140.4905  160.9532 C.3     1  UNL1        0.0908
     17 C         140.9664  143.6194  162.7356 C.ar    1  UNL1        0.0025
     18 C         142.3356  143.8061  163.3189 C.ar    1  UNL1        0.0032
     19 C         142.5912  143.4644  164.7569 C.ar    1  UNL1        0.0369
     20 C         141.4775  142.9358  165.6116 C.ar    1  UNL1        0.1386
     21 C         140.1083  142.7491  165.0282 C.ar    1  UNL1        0.0369
     22 C         139.8527  143.0909  163.5902 C.ar    1  UNL1        0.0032
     23 O         141.7331  142.5940  167.0496 O.3     1  UNL1       -0.4751
     24 C         140.6030  142.1390  167.9246 C.3     1  UNL1        0.2101
     25 C         140.3681  140.6741  168.1452 C.3     1  UNL1        0.0736
     26 C         140.0907  139.7748  166.9771 C.ar    1  UNL1       -0.0183
     27 C         141.2226  139.2794  166.1266 C.ar    1  UNL1       -0.0018
     28 C         140.9452  138.3801  164.9586 C.ar    1  UNL1        0.0293
     29 C         139.5360  137.9762  164.6410 C.ar    1  UNL1        0.1401
     30 F         139.2586  137.0769  163.4729 F       1  UNL1       -0.2042
     31 C         138.4040  138.4716  165.4915 C.ar    1  UNL1        0.0293
     32 C         138.6814  139.3709  166.6595 C.ar    1  UNL1       -0.0018
     33 C         141.0229  142.2842  157.7142 C.3     1  UNL1        0.1756
     34 C         142.3106  142.3466  156.9474 C.2     1  UNL1        0.0816
     35 O         143.3900  143.2985  157.3703 O.co2   1  UNL1       -0.5464
     36 O         142.5189  141.4571  155.7577 O.co2   1  UNL1       -0.5464
     37 O         140.0191  141.2125  157.4083 O.3     1  UNL1       -0.3509
     38 C         138.6181  141.5850  157.0230 C.3     1  UNL1        0.0938
     39 C         139.0759  141.8560  155.6205 C.3     1  UNL1        0.0297
     40 C         138.1603  141.3139  158.4255 C.3     1  UNL1        0.0297
     41 C         137.2171  141.9575  156.6376 C.3     1  UNL1        0.0297
@<TRIPOS>UNITY_ATOM_ATTR
35 1
charge -1
@<TRIPOS>BOND
     1     1     2    1
     2     2     3   ar
     3     3     4   ar
     4     4     5    1
     5     4     6   ar
     6     6    33    1
     7    33    37    1
     8    37    38    1
     9    38    39    1
    10    38    40    1
    11    38    41    1
    12    33    34    1
    13    34    35   ar
    14    34    36   ar
    15     6     7   ar
    16     7     9    1
    17     9    10    1
    18    10    11    1
    19    11    12    1
    20    12    13    1
    21    12    14    1
    22    12    15    1
    23    15    16    1
    24     7     8   ar
    25     8    17    1
    26    17    18   ar
    27    18    19   ar
    28    19    20   ar
    29    20    23    1
    30    23    24    1
    31    24    25    1
    32    25    26    1
    33    26    27   ar
    34    27    28   ar
    35    28    29   ar
    36    29    30    1
    37    29    31   ar
    38    31    32   ar
    39    20    21   ar
    40    21    22   ar
    41     8     2   ar
    42    22    17   ar
    43    16     9    1
    44    32    26   ar
