@<TRIPOS>MOLECULE
*****
 34 36 0 0 0
SMALL
GASTEIGER

@<TRIPOS>ATOM
      1 S         140.2838  138.3248  162.4014 S.O2    1  UNL1        0.0768
      2 O         139.4601  139.5405  162.0958 O.2     1  UNL1       -0.1498
      3 O         141.1075  137.1091  162.7070 O.2     1  UNL1       -0.1498
      4 O         141.7196  140.1138  164.3348 O.2     1  UNL1       -0.2509
      5 C         140.5620  139.2815  164.8009 C.2     1  UNL1        0.3231
      6 N         140.1222  139.3437  166.2336 N.am    1  UNL1       -0.2671
      7 N         139.8441  138.3870  163.8341 N.am    1  UNL1       -0.1690
      8 H         139.3624  138.7975  166.5395 H       1  UNL1        0.1565
      9 H         139.0843  137.8407  164.1400 H       1  UNL1        0.1781
     10 C         140.8401  140.2382  167.2003 C.ar    1  UNL1        0.0516
     11 C         140.3550  141.6392  167.4280 C.ar    1  UNL1        0.0147
     12 C         141.0729  142.5337  168.3947 C.ar    1  UNL1        0.0051
     13 C         142.2759  142.0271  169.1337 C.ar    1  UNL1        0.0715
     14 C         142.7610  140.6261  168.9061 C.ar    1  UNL1        0.0051
     15 C         142.0431  139.7317  167.9394 C.ar    1  UNL1        0.0147
     16 C         142.9938  142.9216  170.1005 C.3     1  UNL1        0.4186
     17 F         143.7117  143.8161  171.0672 F       1  UNL1       -0.1659
     18 F         141.7848  143.8058  170.1803 F       1  UNL1       -0.1659
     19 F         144.2029  142.0375  170.0207 F       1  UNL1       -0.1659
     20 C         140.7235  138.2626  160.9687 C.ar    1  UNL1        0.1255
     21 C         142.1607  137.9904  160.6364 C.ar    1  UNL1        0.0233
     22 C         142.6004  137.9282  159.2036 C.ar    1  UNL1        0.0383
     23 C         141.6030  138.1382  158.1032 C.ar    1  UNL1        0.1386
     24 C         140.1658  138.4103  158.4355 C.ar    1  UNL1        0.0383
     25 C         139.7260  138.4725  159.8682 C.ar    1  UNL1        0.0233
     26 O         142.0427  138.0760  156.6705 O.3     1  UNL1       -0.4754
     27 C         143.3273  137.3908  156.3092 C.3     1  UNL1        0.2068
     28 C         143.3018  136.0108  155.7218 C.3     1  UNL1        0.0646
     29 C         142.8453  134.8496  156.5544 C.3     1  UNL1        0.0759
     30 N         143.7488  133.6691  156.7546 N.3     1  UNL1       -0.2726
     31 C         144.4726  133.3175  158.0205 C.3     1  UNL1        0.0721
     32 C         145.2583  132.0641  157.7723 C.3     1  UNL1        0.0188
     33 C         145.0200  131.6410  156.3530 C.3     1  UNL1        0.0188
     34 C         144.0871  132.6330  155.7241 C.3     1  UNL1        0.0721
@<TRIPOS>BOND
     1     4     5    2
     2     5     6   am
     3     6    10    1
     4    10    11   ar
     5    11    12   ar
     6    12    13   ar
     7    13    16    1
     8    16    17    1
     9    16    18    1
    10    16    19    1
    11    13    14   ar
    12    14    15   ar
    13     5     7   am
    14     7     1    1
    15     1     2    2
    16     1     3    2
    17     1    20    1
    18    20    21   ar
    19    21    22   ar
    20    22    23   ar
    21    23    26    1
    22    26    27    1
    23    27    28    1
    24    28    29    1
    25    29    30    1
    26    30    31    1
    27    31    32    1
    28    32    33    1
    29    33    34    1
    30    23    24   ar
    31    24    25   ar
    32    15    10   ar
    33    25    20   ar
    34    34    30    1
    35     6     8    1
    36     7     9    1
@<TRIPOS>MOLECULE
*****
 34 36 0 0 0
SMALL
GASTEIGER

@<TRIPOS>ATOM
      1 S         139.6730  139.3452  160.2610 S.O2    1  UNL1        0.0768
      2 O         140.3673  140.6534  160.0236 O.2     1  UNL1       -0.1498
      3 O         138.9786  138.0370  160.4984 O.2     1  UNL1       -0.1498
      4 O         140.4304  139.1325  163.1560 O.2     1  UNL1       -0.2509
      5 C         139.1949  139.8838  162.7573 C.2     1  UNL1        0.3231
      6 N         138.3381  140.5288  163.8060 N.am    1  UNL1       -0.2671
      7 N         138.8162  139.9902  161.3097 N.am    1  UNL1       -0.1690
      8 H         137.5272  141.0220  163.5443 H       1  UNL1        0.1565
      9 H         138.0053  140.4833  161.0480 H       1  UNL1        0.1781
     10 C         138.7168  140.4225  165.2536 C.ar    1  UNL1        0.0516
     11 C         138.1110  139.3508  166.1105 C.ar    1  UNL1        0.0147
     12 C         138.4897  139.2445  167.5580 C.ar    1  UNL1        0.0051
     13 C         139.4742  140.2098  168.1485 C.ar    1  UNL1        0.0715
     14 C         140.0800  141.2815  167.2916 C.ar    1  UNL1        0.0051
     15 C         139.7013  141.3879  165.8441 C.ar    1  UNL1        0.0147
     16 C         139.8529  140.1035  169.5961 C.3     1  UNL1        0.4186
     17 F         140.2316  139.9971  171.0435 F       1  UNL1       -0.1659
     18 F         138.5232  140.6776  169.9862 F       1  UNL1       -0.1659
     19 F         141.1826  139.5293  169.2060 F       1  UNL1       -0.1659
     20 C         140.5297  138.7002  159.2123 C.ar    1  UNL1        0.1255
     21 C         142.0135  138.6042  159.4107 C.ar    1  UNL1        0.0233
     22 C         142.8702  137.9592  158.3619 C.ar    1  UNL1        0.0383
     23 C         142.2433  137.4102  157.1147 C.ar    1  UNL1        0.1386
     24 C         140.7596  137.5062  156.9163 C.ar    1  UNL1        0.0383
     25 C         139.9028  138.1512  157.9650 C.ar    1  UNL1        0.0233
     26 O         143.1001  136.7652  156.0660 O.3     1  UNL1       -0.4754
     27 C         142.5010  136.3636  154.7508 C.3     1  UNL1        0.2068
     28 C         142.2624  134.9142  154.4467 C.3     1  UNL1        0.0646
     29 C         142.0318  133.9413  155.5649 C.3     1  UNL1        0.0759
     30 N         143.1993  133.2910  156.2460 N.3     1  UNL1       -0.2726
     31 C         143.7127  133.6157  157.6175 C.3     1  UNL1        0.0721
     32 C         144.8891  132.7271  157.8944 C.3     1  UNL1        0.0188
     33 C         145.1027  131.8533  156.6940 C.3     1  UNL1        0.0188
     34 C         144.0583  132.2018  155.6753 C.3     1  UNL1        0.0721
@<TRIPOS>BOND
     1     4     5    2
     2     5     6   am
     3     6    10    1
     4    10    11   ar
     5    11    12   ar
     6    12    13   ar
     7    13    16    1
     8    16    17    1
     9    16    18    1
    10    16    19    1
    11    13    14   ar
    12    14    15   ar
    13     5     7   am
    14     7     1    1
    15     1     2    2
    16     1     3    2
    17     1    20    1
    18    20    21   ar
    19    21    22   ar
    20    22    23   ar
    21    23    26    1
    22    26    27    1
    23    27    28    1
    24    28    29    1
    25    29    30    1
    26    30    31    1
    27    31    32    1
    28    32    33    1
    29    33    34    1
    30    23    24   ar
    31    24    25   ar
    32    15    10   ar
    33    25    20   ar
    34    34    30    1
    35     6     8    1
    36     7     9    1
@<TRIPOS>MOLECULE
*****
 34 36 0 0 0
SMALL
GASTEIGER

@<TRIPOS>ATOM
      1 S         141.9701  138.5608  158.5021 S.O2    1  UNL1        0.0768
      2 O         140.8199  139.4146  158.0572 O.2     1  UNL1       -0.1498
      3 O         143.1203  137.7070  158.9470 O.2     1  UNL1       -0.1498
      4 O         140.1890  137.7421  160.7731 O.2     1  UNL1       -0.2509
      5 C         141.1308  138.8980  160.9377 C.2     1  UNL1        0.3231
      6 N         141.1820  139.6444  162.2377 N.am    1  UNL1       -0.2671
      7 N         142.0214  139.3073  159.8021 N.am    1  UNL1       -0.1690
      8 H         141.8001  140.4030  162.3457 H       1  UNL1        0.1565
      9 H         142.6395  140.0659  159.9101 H       1  UNL1        0.1781
     10 C         140.2914  139.2351  163.3732 C.ar    1  UNL1        0.0516
     11 C         140.4074  137.8591  163.9589 C.ar    1  UNL1        0.0147
     12 C         139.5168  137.4498  165.0944 C.ar    1  UNL1        0.0051
     13 C         138.5103  138.4165  165.6442 C.ar    1  UNL1        0.0715
     14 C         138.3943  139.7926  165.0585 C.ar    1  UNL1        0.0051
     15 C         139.2849  140.2018  163.9231 C.ar    1  UNL1        0.0147
     16 C         137.6197  138.0072  166.7797 C.3     1  UNL1        0.4186
     17 F         136.7292  137.5978  167.9152 F       1  UNL1       -0.1659
     18 F         137.5011  139.4411  167.2037 F       1  UNL1       -0.1659
     19 F         137.7383  136.5733  166.3558 F       1  UNL1       -0.1659
     20 C         141.9189  137.8144  157.2021 C.ar    1  UNL1        0.1255
     21 C         140.6043  137.3287  156.6674 C.ar    1  UNL1        0.0233
     22 C         140.5531  136.5822  155.3673 C.ar    1  UNL1        0.0383
     23 C         141.8165  136.3214  154.6020 C.ar    1  UNL1        0.1386
     24 C         143.1311  136.8071  155.1367 C.ar    1  UNL1        0.0383
     25 C         143.1823  137.5535  156.4367 C.ar    1  UNL1        0.0233
     26 O         141.7652  135.5749  153.3020 O.3     1  UNL1       -0.4754
     27 C         141.2132  134.1809  153.2588 C.3     1  UNL1        0.2068
     28 C         141.9240  133.0702  153.9739 C.3     1  UNL1        0.0646
     29 C         141.6810  132.8436  155.4366 C.3     1  UNL1        0.0759
     30 N         142.8404  132.6465  156.3678 N.3     1  UNL1       -0.2726
     31 C         143.5636  131.3557  156.6143 C.3     1  UNL1        0.0721
     32 C         144.6502  131.6169  157.6147 C.3     1  UNL1        0.0188
     33 C         144.5986  133.0693  157.9865 C.3     1  UNL1        0.0188
     34 C         143.4801  133.7055  157.2158 C.3     1  UNL1        0.0721
@<TRIPOS>BOND
     1     4     5    2
     2     5     6   am
     3     6    10    1
     4    10    11   ar
     5    11    12   ar
     6    12    13   ar
     7    13    16    1
     8    16    17    1
     9    16    18    1
    10    16    19    1
    11    13    14   ar
    12    14    15   ar
    13     5     7   am
    14     7     1    1
    15     1     2    2
    16     1     3    2
    17     1    20    1
    18    20    21   ar
    19    21    22   ar
    20    22    23   ar
    21    23    26    1
    22    26    27    1
    23    27    28    1
    24    28    29    1
    25    29    30    1
    26    30    31    1
    27    31    32    1
    28    32    33    1
    29    33    34    1
    30    23    24   ar
    31    24    25   ar
    32    15    10   ar
    33    25    20   ar
    34    34    30    1
    35     6     8    1
    36     7     9    1
@<TRIPOS>MOLECULE
*****
 34 36 0 0 0
SMALL
GASTEIGER

@<TRIPOS>ATOM
      1 S         142.2231  138.1701  162.2394 S.O2    1  UNL1        0.0768
      2 O         143.3651  139.0885  161.9196 O.2     1  UNL1       -0.1498
      3 O         141.0810  137.2518  162.5593 O.2     1  UNL1       -0.1498
      4 O         140.9984  140.0886  164.1939 O.2     1  UNL1       -0.2509
      5 C         142.0329  139.1056  164.6558 C.2     1  UNL1        0.3231
      6 N         142.4552  139.0818  166.0949 N.am    1  UNL1       -0.2671
      7 N         142.6453  138.1463  163.6785 N.am    1  UNL1       -0.1690
      8 H         143.1342  138.4366  166.3981 H       1  UNL1        0.1565
      9 H         143.3243  137.5012  163.9817 H       1  UNL1        0.1781
     10 C         141.8428  140.0410  167.0722 C.ar    1  UNL1        0.0516
     11 C         142.6104  141.2505  167.5172 C.ar    1  UNL1        0.0147
     12 C         141.9980  142.2096  168.4944 C.ar    1  UNL1        0.0051
     13 C         140.6181  141.9594  169.0266 C.ar    1  UNL1        0.0715
     14 C         139.8506  140.7500  168.5816 C.ar    1  UNL1        0.0051
     15 C         140.4629  139.7908  167.6044 C.ar    1  UNL1        0.0147
     16 C         140.0058  142.9186  170.0039 C.3     1  UNL1        0.4186
     17 F         139.3935  143.8779  170.9811 F       1  UNL1       -0.1659
     18 F         138.9800  141.8883  170.3725 F       1  UNL1       -0.1659
     19 F         141.0316  143.9490  169.6352 F       1  UNL1       -0.1659
     20 C         141.8008  138.1939  160.8003 C.ar    1  UNL1        0.1255
     21 C         142.7999  137.9003  159.7206 C.ar    1  UNL1        0.0233
     22 C         142.3776  137.9241  158.2814 C.ar    1  UNL1        0.0383
     23 C         140.9563  138.2415  157.9220 C.ar    1  UNL1        0.1386
     24 C         139.9573  138.5351  159.0017 C.ar    1  UNL1        0.0383
     25 C         140.3795  138.5113  160.4408 C.ar    1  UNL1        0.0233
     26 O         140.5341  138.2653  156.4829 O.3     1  UNL1       -0.4754
     27 C         140.1768  136.9866  155.7848 C.3     1  UNL1        0.2068
     28 C         141.2422  136.1833  155.0993 C.3     1  UNL1        0.0646
     29 C         141.2399  134.6873  155.2078 C.3     1  UNL1        0.0759
     30 N         142.3373  133.9877  155.9536 N.3     1  UNL1       -0.2726
     31 C         142.8310  132.5952  155.6942 C.3     1  UNL1        0.0721
     32 C         143.9325  132.3047  156.6701 C.3     1  UNL1        0.0188
     33 C         144.1196  133.5176  157.5326 C.3     1  UNL1        0.0188
     34 C         143.1336  134.5577  157.0898 C.3     1  UNL1        0.0721
@<TRIPOS>BOND
     1     4     5    2
     2     5     6   am
     3     6    10    1
     4    10    11   ar
     5    11    12   ar
     6    12    13   ar
     7    13    16    1
     8    16    17    1
     9    16    18    1
    10    16    19    1
    11    13    14   ar
    12    14    15   ar
    13     5     7   am
    14     7     1    1
    15     1     2    2
    16     1     3    2
    17     1    20    1
    18    20    21   ar
    19    21    22   ar
    20    22    23   ar
    21    23    26    1
    22    26    27    1
    23    27    28    1
    24    28    29    1
    25    29    30    1
    26    30    31    1
    27    31    32    1
    28    32    33    1
    29    33    34    1
    30    23    24   ar
    31    24    25   ar
    32    15    10   ar
    33    25    20   ar
    34    34    30    1
    35     6     8    1
    36     7     9    1
@<TRIPOS>MOLECULE
*****
 34 36 0 0 0
SMALL
GASTEIGER

@<TRIPOS>ATOM
      1 S         139.7956  144.4269  161.9187 S.O2    1  UNL1        0.0768
      2 O         140.9794  145.3056  162.1950 O.2     1  UNL1       -0.1498
      3 O         138.6118  143.5482  161.6424 O.2     1  UNL1       -0.1498
      4 O         141.0041  142.3288  163.6900 O.2     1  UNL1       -0.2509
      5 C         140.0753  143.3547  164.2687 C.2     1  UNL1        0.3231
      6 N         139.7507  143.3315  165.7329 N.am    1  UNL1       -0.2671
      7 N         139.4710  144.4038  163.3830 N.am    1  UNL1       -0.1690
      8 H         139.1410  144.0048  166.1127 H       1  UNL1        0.1565
      9 H         138.8614  145.0771  163.7627 H       1  UNL1        0.1781
     10 C         140.3549  142.2824  166.6186 C.ar    1  UNL1        0.0516
     11 C         139.6988  140.9396  166.7459 C.ar    1  UNL1        0.0147
     12 C         140.3030  139.8906  167.6315 C.ar    1  UNL1        0.0051
     13 C         141.5634  140.1844  168.3899 C.ar    1  UNL1        0.0715
     14 C         142.2195  141.5272  168.2626 C.ar    1  UNL1        0.0051
     15 C         141.6153  142.5762  167.3769 C.ar    1  UNL1        0.0147
     16 C         142.1676  139.1353  169.2756 C.3     1  UNL1        0.4186
     17 F         142.7719  138.0863  170.1612 F       1  UNL1       -0.1659
     18 F         141.3173  139.6090  170.4168 F       1  UNL1       -0.1659
     19 F         143.0180  138.6617  168.1343 F       1  UNL1       -0.1659
     20 C         140.1202  144.4501  160.4545 C.ar    1  UNL1        0.1255
     21 C         139.5061  143.4373  159.5340 C.ar    1  UNL1        0.0233
     22 C         139.8307  143.4605  158.0697 C.ar    1  UNL1        0.0383
     23 C         140.7694  144.4964  157.5259 C.ar    1  UNL1        0.1386
     24 C         141.3835  145.5092  158.4464 C.ar    1  UNL1        0.0383
     25 C         141.0589  145.4860  159.9106 C.ar    1  UNL1        0.0233
     26 O         141.0940  144.5196  156.0617 O.3     1  UNL1       -0.4754
     27 C         140.6716  145.6858  155.2181 C.3     1  UNL1        0.2068
     28 C         139.2438  146.1454  155.2350 C.3     1  UNL1        0.0646
     29 C         138.8459  147.3264  156.0698 C.3     1  UNL1        0.0759
     30 N         138.9591  148.7132  155.5094 N.3     1  UNL1       -0.2726
     31 C         138.4481  149.9683  156.1524 C.3     1  UNL1        0.0721
     32 C         138.7763  151.1192  155.2481 C.3     1  UNL1        0.0188
     33 C         139.4902  150.5753  154.0461 C.3     1  UNL1        0.0188
     34 C         139.6031  149.0883  154.2077 C.3     1  UNL1        0.0721
@<TRIPOS>BOND
     1     4     5    2
     2     5     6   am
     3     6    10    1
     4    10    11   ar
     5    11    12   ar
     6    12    13   ar
     7    13    16    1
     8    16    17    1
     9    16    18    1
    10    16    19    1
    11    13    14   ar
    12    14    15   ar
    13     5     7   am
    14     7     1    1
    15     1     2    2
    16     1     3    2
    17     1    20    1
    18    20    21   ar
    19    21    22   ar
    20    22    23   ar
    21    23    26    1
    22    26    27    1
    23    27    28    1
    24    28    29    1
    25    29    30    1
    26    30    31    1
    27    31    32    1
    28    32    33    1
    29    33    34    1
    30    23    24   ar
    31    24    25   ar
    32    15    10   ar
    33    25    20   ar
    34    34    30    1
    35     6     8    1
    36     7     9    1
@<TRIPOS>MOLECULE
*****
 34 36 0 0 0
SMALL
GASTEIGER

@<TRIPOS>ATOM
      1 S         143.0673  140.2737  158.7437 S.O2    1  UNL1        0.0768
      2 O         142.2009  140.9530  157.7250 O.2     1  UNL1       -0.1498
      3 O         143.9337  139.5943  159.7624 O.2     1  UNL1       -0.1498
      4 O         142.0115  137.6388  157.7727 O.2     1  UNL1       -0.2509
      5 C         143.2517  138.2208  157.1619 C.2     1  UNL1        0.3231
      6 N         143.9640  137.4855  156.0657 N.am    1  UNL1       -0.2671
      7 N         143.7796  139.5383  157.6475 N.am    1  UNL1       -0.1690
      8 H         144.7780  137.8675  155.6648 H       1  UNL1        0.1565
      9 H         144.5936  139.9203  157.2466 H       1  UNL1        0.1781
     10 C         143.4361  136.1680  155.5802 C.ar    1  UNL1        0.0516
     11 C         143.7432  134.9113  156.3392 C.ar    1  UNL1        0.0147
     12 C         143.2153  133.5939  155.8537 C.ar    1  UNL1        0.0051
     13 C         142.3802  133.5333  154.6091 C.ar    1  UNL1        0.0715
     14 C         142.0731  134.7900  153.8500 C.ar    1  UNL1        0.0051
     15 C         142.6010  136.1074  154.3356 C.ar    1  UNL1        0.0147
     16 C         141.8523  132.2158  154.1236 C.3     1  UNL1        0.4186
     17 F         141.3245  130.8984  153.6381 F       1  UNL1       -0.1659
     18 F         140.7549  132.2793  155.1442 F       1  UNL1       -0.1659
     19 F         142.9497  132.1522  153.1030 F       1  UNL1       -0.1659
     20 C         142.3550  141.0090  159.8400 C.ar    1  UNL1        0.1255
     21 C         141.7628  142.3613  159.5743 C.ar    1  UNL1        0.0233
     22 C         141.0505  143.0967  160.6706 C.ar    1  UNL1        0.0383
     23 C         140.9304  142.4797  162.0326 C.ar    1  UNL1        0.1386
     24 C         141.5226  141.1275  162.2983 C.ar    1  UNL1        0.0383
     25 C         142.2349  140.3921  161.2020 C.ar    1  UNL1        0.0233
     26 O         140.2181  143.2151  163.1288 O.3     1  UNL1       -0.4754
     27 C         141.0022  144.0031  164.1359 C.3     1  UNL1        0.2068
     28 C         141.9315  145.0887  163.6800 C.3     1  UNL1        0.0646
     29 C         143.3972  144.9989  163.9862 C.3     1  UNL1        0.0759
     30 N         144.1759  143.7841  163.5765 N.3     1  UNL1       -0.2726
     31 C         144.4887  143.3707  162.1690 C.3     1  UNL1        0.0721
     32 C         145.2846  142.1005  162.2249 C.3     1  UNL1        0.0188
     33 C         145.4637  141.7289  163.6672 C.3     1  UNL1        0.0188
     34 C         144.7784  142.7694  164.5024 C.3     1  UNL1        0.0721
@<TRIPOS>BOND
     1     4     5    2
     2     5     6   am
     3     6    10    1
     4    10    11   ar
     5    11    12   ar
     6    12    13   ar
     7    13    16    1
     8    16    17    1
     9    16    18    1
    10    16    19    1
    11    13    14   ar
    12    14    15   ar
    13     5     7   am
    14     7     1    1
    15     1     2    2
    16     1     3    2
    17     1    20    1
    18    20    21   ar
    19    21    22   ar
    20    22    23   ar
    21    23    26    1
    22    26    27    1
    23    27    28    1
    24    28    29    1
    25    29    30    1
    26    30    31    1
    27    31    32    1
    28    32    33    1
    29    33    34    1
    30    23    24   ar
    31    24    25   ar
    32    15    10   ar
    33    25    20   ar
    34    34    30    1
    35     6     8    1
    36     7     9    1
@<TRIPOS>MOLECULE
*****
 34 36 0 0 0
SMALL
GASTEIGER

@<TRIPOS>ATOM
      1 S         144.0442  139.4481  161.1118 S.O2    1  UNL1        0.0768
      2 O         144.0379  138.0135  161.5498 O.2     1  UNL1       -0.1498
      3 O         144.0504  140.8826  160.6738 O.2     1  UNL1       -0.1498
      4 O         142.0307  139.9542  163.2774 O.2     1  UNL1       -0.2509
      5 C         143.4945  140.1164  163.5616 C.2     1  UNL1        0.3231
      6 N         143.9517  140.5318  164.9285 N.am    1  UNL1       -0.2671
      7 N         144.5013  139.8634  162.4787 N.am    1  UNL1       -0.1690
      8 H         144.9125  140.6382  165.1150 H       1  UNL1        0.1565
      9 H         145.4621  139.9698  162.6652 H       1  UNL1        0.1781
     10 C         142.9449  140.7848  166.0113 C.ar    1  UNL1        0.0516
     11 C         142.6204  139.7053  167.0009 C.ar    1  UNL1        0.0147
     12 C         141.6137  139.9584  168.0836 C.ar    1  UNL1        0.0051
     13 C         140.9315  141.2911  168.1768 C.ar    1  UNL1        0.0715
     14 C         141.2561  142.3706  167.1873 C.ar    1  UNL1        0.0051
     15 C         142.2628  142.1175  166.1045 C.ar    1  UNL1        0.0147
     16 C         139.9248  141.5442  169.2597 C.3     1  UNL1        0.4186
     17 F         138.9180  141.7972  170.3425 F       1  UNL1       -0.1659
     18 F         140.5968  142.8463  169.5803 F       1  UNL1       -0.1659
     19 F         139.2527  140.2421  168.9391 F       1  UNL1       -0.1659
     20 C         143.5870  139.0327  159.7449 C.ar    1  UNL1        0.1255
     21 C         143.7809  139.9540  158.5771 C.ar    1  UNL1        0.0233
     22 C         143.3238  139.5386  157.2101 C.ar    1  UNL1        0.0383
     23 C         142.6727  138.2021  157.0110 C.ar    1  UNL1        0.1386
     24 C         142.4788  137.2808  158.1788 C.ar    1  UNL1        0.0383
     25 C         142.9359  137.6961  159.5457 C.ar    1  UNL1        0.0233
     26 O         142.2156  137.7867  155.6441 O.3     1  UNL1       -0.4754
     27 C         142.3972  136.3683  155.1913 C.3     1  UNL1        0.2068
     28 C         143.6874  135.6533  155.4641 C.3     1  UNL1        0.0646
     29 C         143.7146  134.4901  156.4107 C.3     1  UNL1        0.0759
     30 N         143.9224  133.1005  155.8857 N.3     1  UNL1       -0.2726
     31 C         143.1693  132.4631  154.7558 C.3     1  UNL1        0.0721
     32 C         143.7012  131.0730  154.5701 C.3     1  UNL1        0.0188
     33 C         144.7831  130.8511  155.5852 C.3     1  UNL1        0.0188
     34 C         144.9198  132.1042  156.3982 C.3     1  UNL1        0.0721
@<TRIPOS>BOND
     1     4     5    2
     2     5     6   am
     3     6    10    1
     4    10    11   ar
     5    11    12   ar
     6    12    13   ar
     7    13    16    1
     8    16    17    1
     9    16    18    1
    10    16    19    1
    11    13    14   ar
    12    14    15   ar
    13     5     7   am
    14     7     1    1
    15     1     2    2
    16     1     3    2
    17     1    20    1
    18    20    21   ar
    19    21    22   ar
    20    22    23   ar
    21    23    26    1
    22    26    27    1
    23    27    28    1
    24    28    29    1
    25    29    30    1
    26    30    31    1
    27    31    32    1
    28    32    33    1
    29    33    34    1
    30    23    24   ar
    31    24    25   ar
    32    15    10   ar
    33    25    20   ar
    34    34    30    1
    35     6     8    1
    36     7     9    1
@<TRIPOS>MOLECULE
*****
 34 36 0 0 0
SMALL
GASTEIGER

@<TRIPOS>ATOM
      1 S         143.0670  139.9531  158.9965 S.O2    1  UNL1        0.0768
      2 O         143.9633  139.1659  159.9058 O.2     1  UNL1       -0.1498
      3 O         142.1707  140.7404  158.0872 O.2     1  UNL1       -0.1498
      4 O         142.0079  137.4011  157.8278 O.2     1  UNL1       -0.2509
      5 C         143.2084  138.0633  157.2193 C.2     1  UNL1        0.3231
      6 N         143.8794  137.4494  156.0265 N.am    1  UNL1       -0.2671
      7 N         143.7380  139.3393  157.8037 N.am    1  UNL1       -0.1690
      8 H         144.6674  137.8840  155.6271 H       1  UNL1        0.1565
      9 H         144.5259  139.7739  157.4043 H       1  UNL1        0.1781
     10 C         143.3499  136.1734  155.4421 C.ar    1  UNL1        0.0516
     11 C         142.4362  136.2153  154.2532 C.ar    1  UNL1        0.0147
     12 C         141.9067  134.9394  153.6689 C.ar    1  UNL1        0.0051
     13 C         142.2909  133.6214  154.2735 C.ar    1  UNL1        0.0715
     14 C         143.2046  133.5795  155.4623 C.ar    1  UNL1        0.0051
     15 C         143.7341  134.8555  156.0466 C.ar    1  UNL1        0.0147
     16 C         141.7614  132.3454  153.6891 C.3     1  UNL1        0.4186
     17 F         141.2319  131.0694  153.1047 F       1  UNL1       -0.1659
     18 F         140.8851  132.1581  154.8919 F       1  UNL1       -0.1659
     19 F         142.6377  132.5327  152.4862 F       1  UNL1       -0.1659
     20 C         142.3960  140.5670  160.1894 C.ar    1  UNL1        0.1255
     21 C         142.2720  139.7866  161.4644 C.ar    1  UNL1        0.0233
     22 C         141.6010  140.4005  162.6573 C.ar    1  UNL1        0.0383
     23 C         141.0540  141.7947  162.5751 C.ar    1  UNL1        0.1386
     24 C         141.1779  142.5751  161.3001 C.ar    1  UNL1        0.0383
     25 C         141.8489  141.9613  160.1073 C.ar    1  UNL1        0.0233
     26 O         140.3830  142.4085  163.7680 O.3     1  UNL1       -0.4754
     27 C         139.0943  143.1578  163.6006 C.3     1  UNL1        0.2068
     28 C         137.7899  142.4849  163.9101 C.3     1  UNL1        0.0646
     29 C         137.3474  141.3000  163.1038 C.3     1  UNL1        0.0759
     30 N         137.9714  139.9566  163.3403 N.3     1  UNL1       -0.2726
     31 C         138.4762  139.4380  164.6541 C.3     1  UNL1        0.0721
     32 C         139.0169  138.0568  164.4303 C.3     1  UNL1        0.0188
     33 C         138.8464  137.7219  162.9781 C.3     1  UNL1        0.0188
     34 C         138.2002  138.8961  162.3045 C.3     1  UNL1        0.0721
@<TRIPOS>BOND
     1     4     5    2
     2     5     6   am
     3     6    10    1
     4    10    11   ar
     5    11    12   ar
     6    12    13   ar
     7    13    16    1
     8    16    17    1
     9    16    18    1
    10    16    19    1
    11    13    14   ar
    12    14    15   ar
    13     5     7   am
    14     7     1    1
    15     1     2    2
    16     1     3    2
    17     1    20    1
    18    20    21   ar
    19    21    22   ar
    20    22    23   ar
    21    23    26    1
    22    26    27    1
    23    27    28    1
    24    28    29    1
    25    29    30    1
    26    30    31    1
    27    31    32    1
    28    32    33    1
    29    33    34    1
    30    23    24   ar
    31    24    25   ar
    32    15    10   ar
    33    25    20   ar
    34    34    30    1
    35     6     8    1
    36     7     9    1
@<TRIPOS>MOLECULE
*****
 34 36 0 0 0
SMALL
GASTEIGER

@<TRIPOS>ATOM
      1 S         144.0045  140.1443  162.1400 S.O2    1  UNL1        0.0768
      2 O         145.2025  141.0136  162.3833 O.2     1  UNL1       -0.1498
      3 O         142.8065  139.2751  161.8967 O.2     1  UNL1       -0.1498
      4 O         142.3651  141.5930  164.1928 O.2     1  UNL1       -0.2509
      5 C         143.2151  140.4258  164.5992 C.2     1  UNL1        0.3231
      6 N         143.2455  139.9830  166.0320 N.am    1  UNL1       -0.2671
      7 N         144.0348  139.7015  163.5728 N.am    1  UNL1       -0.1690
      8 H         143.8034  139.2170  166.2988 H       1  UNL1        0.1565
      9 H         144.5927  138.9355  163.8395 H       1  UNL1        0.1781
     10 C         142.4258  140.7073  167.0584 C.ar    1  UNL1        0.0516
     11 C         141.0098  140.2872  167.3202 C.ar    1  UNL1        0.0147
     12 C         140.1902  141.0115  168.3466 C.ar    1  UNL1        0.0051
     13 C         140.7865  142.1560  169.1112 C.ar    1  UNL1        0.0715
     14 C         142.2024  142.5761  168.8494 C.ar    1  UNL1        0.0051
     15 C         143.0221  141.8518  167.8230 C.ar    1  UNL1        0.0147
     16 C         139.9668  142.8803  170.1376 C.3     1  UNL1        0.4186
     17 F         139.1472  143.6047  171.1640 F       1  UNL1       -0.1659
     18 F         139.1220  141.6555  170.3274 F       1  UNL1       -0.1659
     19 F         140.8116  144.1052  169.9479 F       1  UNL1       -0.1659
     20 C         143.9742  140.5872  160.7072 C.ar    1  UNL1        0.1255
     21 C         143.5933  139.6155  159.6298 C.ar    1  UNL1        0.0233
     22 C         143.5629  140.0584  158.1969 C.ar    1  UNL1        0.0383
     23 C         143.9135  141.4729  157.8416 C.ar    1  UNL1        0.1386
     24 C         144.2944  142.4445  158.9190 C.ar    1  UNL1        0.0383
     25 C         144.3247  142.0017  160.3518 C.ar    1  UNL1        0.0233
     26 O         143.8832  141.9158  156.4088 O.3     1  UNL1       -0.4754
     27 C         145.1313  142.4328  155.7570 C.3     1  UNL1        0.2068
     28 C         146.2462  141.4887  155.4169 C.3     1  UNL1        0.0646
     29 C         146.9699  141.6225  154.1099 C.3     1  UNL1        0.0759
     30 N         148.4682  141.6904  154.0857 N.3     1  UNL1       -0.2726
     31 C         149.3273  141.7732  152.8589 C.3     1  UNL1        0.0721
     32 C         150.7605  141.8213  153.2991 C.3     1  UNL1        0.0188
     33 C         150.7871  141.7681  154.7979 C.3     1  UNL1        0.0188
     34 C         149.3704  141.6872  155.2841 C.3     1  UNL1        0.0721
@<TRIPOS>BOND
     1     4     5    2
     2     5     6   am
     3     6    10    1
     4    10    11   ar
     5    11    12   ar
     6    12    13   ar
     7    13    16    1
     8    16    17    1
     9    16    18    1
    10    16    19    1
    11    13    14   ar
    12    14    15   ar
    13     5     7   am
    14     7     1    1
    15     1     2    2
    16     1     3    2
    17     1    20    1
    18    20    21   ar
    19    21    22   ar
    20    22    23   ar
    21    23    26    1
    22    26    27    1
    23    27    28    1
    24    28    29    1
    25    29    30    1
    26    30    31    1
    27    31    32    1
    28    32    33    1
    29    33    34    1
    30    23    24   ar
    31    24    25   ar
    32    15    10   ar
    33    25    20   ar
    34    34    30    1
    35     6     8    1
    36     7     9    1
