@<TRIPOS>MOLECULE
*****
 36 41 0 0 0
SMALL
GASTEIGER

@<TRIPOS>ATOM
      1 N         141.5180  136.6745  156.6625 N.ar    1  UNL1       -0.2199
      2 N         142.4619  137.4113  157.5659 N.ar    1  UNL1       -0.1625
      3 C         141.6871  138.4871  158.2677 C.ar    1  UNL1        0.1265
      4 C         140.2643  138.4151  157.7979 C.ar    1  UNL1        0.0924
      5 C         140.1598  137.2949  156.8058 C.ar    1  UNL1        0.1311
      6 N         138.9156  136.8697  156.0839 N.pl3   1  UNL1       -0.3425
      7 H         138.0669  137.3417  156.2459 H       1  UNL1        0.1437
      8 H         138.9477  136.1187  155.4482 H       1  UNL1        0.1437
      9 C         144.4205  129.8037  154.2149 C.3     1  UNL1        0.1367
     10 C         143.7750  131.1435  154.4107 C.2     1  UNL1        0.3518
     11 N         143.0613  131.9404  153.3592 N.2     1  UNL1       -0.0350
     12 C         142.5751  133.2111  153.9910 C.2     1  UNL1        0.2318
     13 C         141.8096  134.3771  153.4395 C.2     1  UNL1        0.0514
     14 C         141.4572  135.5316  154.3300 C.2     1  UNL1        0.0192
     15 C         141.8704  135.5200  155.7720 C.2     1  UNL1        0.0704
     16 C         142.6360  134.3539  156.3234 C.3     1  UNL1        0.1235
     17 C         142.9883  133.1994  155.4329 C.2     1  UNL1        0.2190
     18 N         143.7299  131.9216  155.6923 N.2     1  UNL1       -0.0388
     19 C         139.1430  139.3068  158.2422 C.2     1  UNL1        0.2173
     20 O         138.2393  139.9387  157.2253 O.2     1  UNL1       -0.2848
     21 C         138.9253  139.5667  159.7034 C.2     1  UNL1        0.1199
     22 C         139.1219  138.5775  160.8136 C.2     1  UNL1        0.0235
     23 C         138.7910  139.2608  162.1074 C.2     1  UNL1        0.0152
     24 C         138.8030  138.7801  163.5281 C.2     1  UNL1       -0.0020
     25 C         138.4140  139.7109  164.6382 C.2     1  UNL1       -0.0100
     26 C         138.0129  141.1224  164.3274 C.2     1  UNL1       -0.0227
     27 C         138.0008  141.6031  162.9066 C.3     1  UNL1        0.0715
     28 C         138.3898  140.6724  161.7965 C.2     1  UNL1        0.0634
     29 N         138.4729  140.8614  160.3109 N.2     1  UNL1       -0.2461
     30 C         138.4261  139.2301  166.0590 C.3     1  UNL1        0.0990
     31 N         139.5637  139.5968  166.9652 N.3     1  UNL1       -0.2647
     32 C         140.9712  139.5790  166.4469 C.3     1  UNL1        0.1049
     33 C         142.1088  139.9458  167.3531 C.3     1  UNL1        0.1595
     34 O         141.8390  140.3303  168.7777 O.3     1  UNL1       -0.3508
     35 C         140.4315  140.3481  169.2960 C.3     1  UNL1        0.1595
     36 C         139.2939  139.9814  168.3898 C.3     1  UNL1        0.1049
@<TRIPOS>BOND
     1     9    10    1
     2    10    11    2
     3    11    12    1
     4    12    13    2
     5    13    14    1
     6    14    15    2
     7    15     1    1
     8     1     2   ar
     9     2     3   ar
    10     3     4   ar
    11     4    19    1
    12    19    20    2
    13    19    21    1
    14    21    22    2
    15    22    23    1
    16    23    24    2
    17    24    25    1
    18    25    30    1
    19    30    31    1
    20    31    32    1
    21    32    33    1
    22    33    34    1
    23    34    35    1
    24    35    36    1
    25    25    26    2
    26    26    27    1
    27    27    28    1
    28    28    29    2
    29     4     5   ar
    30     5     6    1
    31    15    16    1
    32    16    17    1
    33    17    18    2
    34    18    10    1
    35    17    12    1
    36     5     1   ar
    37    29    21    1
    38    28    23    1
    39    36    31    1
    40     6     7    1
    41     6     8    1
@<TRIPOS>MOLECULE
*****
 36 41 0 0 0
SMALL
GASTEIGER

@<TRIPOS>ATOM
      1 N         140.0287  138.8036  159.4073 N.ar    1  UNL1       -0.2199
      2 N         139.2514  138.8921  158.1275 N.ar    1  UNL1       -0.1625
      3 C         140.0969  138.3159  157.0307 C.ar    1  UNL1        0.1265
      4 C         141.3969  137.8712  157.6328 C.ar    1  UNL1        0.0924
      5 C         141.3547  138.1726  159.1015 C.ar    1  UNL1        0.1311
      6 N         142.4468  137.8923  160.0908 N.pl3   1  UNL1       -0.3425
      7 H         143.2859  137.4727  159.7920 H       1  UNL1        0.1437
      8 H         142.3246  138.1278  161.0389 H       1  UNL1        0.1437
      9 C         137.8986  138.6968  166.9621 C.3     1  UNL1        0.1367
     10 C         138.2501  138.9992  165.5356 C.2     1  UNL1        0.3518
     11 N         138.1938  140.3474  164.8804 N.2     1  UNL1       -0.0350
     12 C         138.6284  140.1880  163.4536 C.2     1  UNL1        0.2318
     13 C         138.7704  141.1733  162.3316 C.2     1  UNL1        0.0514
     14 C         139.2371  140.7118  160.9829 C.2     1  UNL1        0.0192
     15 C         139.5620  139.2650  160.7562 C.2     1  UNL1        0.0704
     16 C         139.4200  138.2798  161.8782 C.3     1  UNL1        0.1235
     17 C         138.9533  138.7412  163.2269 C.2     1  UNL1        0.2190
     18 N         138.7194  138.0066  164.5136 N.2     1  UNL1       -0.0388
     19 C         142.5386  137.2365  156.8954 C.2     1  UNL1        0.2173
     20 O         143.6942  138.0756  156.4366 O.2     1  UNL1       -0.2848
     21 C         142.5248  135.7627  156.6168 C.2     1  UNL1        0.1199
     22 C         143.4729  134.7490  157.1854 C.2     1  UNL1        0.0235
     23 C         143.0945  133.4035  156.6407 C.2     1  UNL1        0.0152
     24 C         143.6735  132.0361  156.8520 C.2     1  UNL1       -0.0020
     25 C         143.0704  130.8508  156.1582 C.2     1  UNL1       -0.0100
     26 C         141.8884  131.0331  155.2529 C.2     1  UNL1       -0.0227
     27 C         141.3093  132.4006  155.0416 C.3     1  UNL1        0.0715
     28 C         141.9124  133.5858  155.7354 C.2     1  UNL1        0.0634
     29 N         141.5603  135.0438  155.7207 N.2     1  UNL1       -0.2461
     30 C         143.6495  129.4833  156.3695 C.3     1  UNL1        0.0990
     31 N         143.3245  128.7158  157.6166 N.3     1  UNL1       -0.2647
     32 C         142.2613  127.6580  157.5906 C.3     1  UNL1        0.1049
     33 C         141.9364  126.8904  158.8377 C.3     1  UNL1        0.1595
     34 O         142.6746  127.1807  160.1108 O.3     1  UNL1       -0.3508
     35 C         143.7377  128.2386  160.1368 C.3     1  UNL1        0.1595
     36 C         144.0627  129.0061  158.8897 C.3     1  UNL1        0.1049
@<TRIPOS>BOND
     1     9    10    1
     2    10    11    2
     3    11    12    1
     4    12    13    2
     5    13    14    1
     6    14    15    2
     7    15     1    1
     8     1     2   ar
     9     2     3   ar
    10     3     4   ar
    11     4    19    1
    12    19    20    2
    13    19    21    1
    14    21    22    2
    15    22    23    1
    16    23    24    2
    17    24    25    1
    18    25    30    1
    19    30    31    1
    20    31    32    1
    21    32    33    1
    22    33    34    1
    23    34    35    1
    24    35    36    1
    25    25    26    2
    26    26    27    1
    27    27    28    1
    28    28    29    2
    29     4     5   ar
    30     5     6    1
    31    15    16    1
    32    16    17    1
    33    17    18    2
    34    18    10    1
    35    17    12    1
    36     5     1   ar
    37    29    21    1
    38    28    23    1
    39    36    31    1
    40     6     7    1
    41     6     8    1
@<TRIPOS>MOLECULE
*****
 36 41 0 0 0
SMALL
GASTEIGER

@<TRIPOS>ATOM
      1 N         141.4949  142.8312  158.8086 N.ar    1  UNL1       -0.2199
      2 N         142.8875  142.5503  158.3272 N.ar    1  UNL1       -0.1625
      3 C         143.8261  142.7537  159.4795 C.ar    1  UNL1        0.1265
      4 C         143.0135  143.1602  160.6730 C.ar    1  UNL1        0.0924
      5 C         141.5728  143.2081  160.2584 C.ar    1  UNL1        0.1311
      6 N         140.4135  143.5694  161.1390 N.pl3   1  UNL1       -0.3425
      7 H         140.5665  143.8036  162.0829 H       1  UNL1        0.1437
      8 H         139.4995  143.5725  160.7730 H       1  UNL1        0.1437
      9 C         134.6288  140.2977  155.9693 C.3     1  UNL1        0.1367
     10 C         135.9106  140.9938  156.3193 C.2     1  UNL1        0.3518
     11 N         136.4362  142.2461  155.6825 N.2     1  UNL1       -0.0350
     12 C         137.7423  142.5861  156.3372 C.2     1  UNL1        0.2318
     13 C         138.7115  143.7100  156.1196 C.2     1  UNL1        0.0514
     14 C         139.9624  143.7917  156.9434 C.2     1  UNL1        0.0192
     15 C         140.2440  142.7494  157.9848 C.2     1  UNL1        0.0704
     16 C         139.2747  141.6255  158.2024 C.3     1  UNL1        0.1235
     17 C         138.0239  141.5439  157.3786 C.2     1  UNL1        0.2190
     18 N         136.8919  140.5598  157.3675 N.2     1  UNL1       -0.0388
     19 C         143.5479  143.4652  162.0410 C.2     1  UNL1        0.2173
     20 O         144.1956  144.7902  162.3150 O.2     1  UNL1       -0.2848
     21 C         143.4346  142.4454  163.1351 C.2     1  UNL1        0.1199
     22 C         143.0624  142.7206  164.5618 C.2     1  UNL1        0.0235
     23 C         143.0713  141.4165  165.3031 C.2     1  UNL1        0.0152
     24 C         142.7843  141.0739  166.7349 C.2     1  UNL1       -0.0020
     25 C         142.8750  139.6501  167.1981 C.2     1  UNL1       -0.0100
     26 C         143.2528  138.5690  166.2294 C.2     1  UNL1       -0.0227
     27 C         143.5398  138.9116  164.7975 C.3     1  UNL1        0.0715
     28 C         143.4491  140.3354  164.3343 C.2     1  UNL1        0.0634
     29 N         143.6736  140.9712  162.9945 N.2     1  UNL1       -0.2461
     30 C         142.5880  139.3075  168.6299 C.3     1  UNL1        0.0990
     31 N         141.5823  140.1060  169.4051 N.3     1  UNL1       -0.2647
     32 C         142.0369  141.0223  170.5022 C.3     1  UNL1        0.1049
     33 C         141.0312  141.8208  171.2774 C.3     1  UNL1        0.1595
     34 O         139.5709  141.7030  170.9554 O.3     1  UNL1       -0.3508
     35 C         139.1162  140.7866  169.8584 C.3     1  UNL1        0.1595
     36 C         140.1219  139.9881  169.0832 C.3     1  UNL1        0.1049
@<TRIPOS>BOND
     1     9    10    1
     2    10    11    2
     3    11    12    1
     4    12    13    2
     5    13    14    1
     6    14    15    2
     7    15     1    1
     8     1     2   ar
     9     2     3   ar
    10     3     4   ar
    11     4    19    1
    12    19    20    2
    13    19    21    1
    14    21    22    2
    15    22    23    1
    16    23    24    2
    17    24    25    1
    18    25    30    1
    19    30    31    1
    20    31    32    1
    21    32    33    1
    22    33    34    1
    23    34    35    1
    24    35    36    1
    25    25    26    2
    26    26    27    1
    27    27    28    1
    28    28    29    2
    29     4     5   ar
    30     5     6    1
    31    15    16    1
    32    16    17    1
    33    17    18    2
    34    18    10    1
    35    17    12    1
    36     5     1   ar
    37    29    21    1
    38    28    23    1
    39    36    31    1
    40     6     7    1
    41     6     8    1
@<TRIPOS>MOLECULE
*****
 36 41 0 0 0
SMALL
GASTEIGER

@<TRIPOS>ATOM
      1 N         139.8900  138.8811  159.0417 N.ar    1  UNL1       -0.2199
      2 N         139.1780  138.8363  157.7222 N.ar    1  UNL1       -0.1625
      3 C         140.0887  138.1822  156.7259 C.ar    1  UNL1        0.1265
      4 C         141.3637  137.8226  157.4298 C.ar    1  UNL1        0.0924
      5 C         141.2409  138.2546  158.8609 C.ar    1  UNL1        0.1311
      6 N         142.2855  138.0892  159.9246 N.pl3   1  UNL1       -0.3425
      7 H         143.1460  137.6630  159.7074 H       1  UNL1        0.1437
      8 H         142.1106  138.4067  160.8399 H       1  UNL1        0.1437
      9 C         137.7849  144.0594  164.5533 C.3     1  UNL1        0.1367
     10 C         138.0840  142.8740  163.6842 C.2     1  UNL1        0.3518
     11 N         137.7994  141.4401  164.0203 N.2     1  UNL1       -0.0350
     12 C         138.2597  140.5942  162.8702 C.2     1  UNL1        0.2318
     13 C         138.2341  139.1121  162.6410 C.2     1  UNL1        0.0514
     14 C         138.7776  138.5411  161.3648 C.2     1  UNL1        0.0192
     15 C         139.3465  139.4522  160.3179 C.2     1  UNL1        0.0704
     16 C         139.3721  140.9343  160.5471 C.3     1  UNL1        0.1235
     17 C         138.8286  141.5053  161.8232 C.2     1  UNL1        0.2190
     18 N         138.7200  142.9143  162.3263 N.2     1  UNL1       -0.0388
     19 C         142.5528  137.1493  156.8110 C.2     1  UNL1        0.2173
     20 O         143.7650  137.9541  156.4466 O.2     1  UNL1       -0.2848
     21 C         142.5295  135.6713  156.5566 C.2     1  UNL1        0.1199
     22 C         143.4847  134.6638  157.1245 C.2     1  UNL1        0.0235
     23 C         143.0925  133.3109  156.6085 C.2     1  UNL1        0.0152
     24 C         143.6712  131.9452  156.8315 C.2     1  UNL1       -0.0020
     25 C         143.0523  130.7509  156.1678 C.2     1  UNL1       -0.0100
     26 C         141.8548  130.9224  155.2809 C.2     1  UNL1       -0.0227
     27 C         141.2761  132.2882  155.0579 C.3     1  UNL1        0.0715
     28 C         141.8950  133.4825  155.7216 C.2     1  UNL1        0.0634
     29 N         141.5471  134.9412  155.6895 N.2     1  UNL1       -0.2461
     30 C         143.6310  129.3851  156.3909 C.3     1  UNL1        0.0990
     31 N         143.3422  128.6470  157.6644 N.3     1  UNL1       -0.2647
     32 C         144.1121  128.9712  158.9102 C.3     1  UNL1        0.1049
     33 C         143.8232  128.2332  160.1837 C.3     1  UNL1        0.1595
     34 O         142.7645  127.1709  160.2114 O.3     1  UNL1       -0.3508
     35 C         141.9946  126.8467  158.9655 C.3     1  UNL1        0.1595
     36 C         142.2834  127.5848  157.6920 C.3     1  UNL1        0.1049
@<TRIPOS>BOND
     1     9    10    1
     2    10    11    2
     3    11    12    1
     4    12    13    2
     5    13    14    1
     6    14    15    2
     7    15     1    1
     8     1     2   ar
     9     2     3   ar
    10     3     4   ar
    11     4    19    1
    12    19    20    2
    13    19    21    1
    14    21    22    2
    15    22    23    1
    16    23    24    2
    17    24    25    1
    18    25    30    1
    19    30    31    1
    20    31    32    1
    21    32    33    1
    22    33    34    1
    23    34    35    1
    24    35    36    1
    25    25    26    2
    26    26    27    1
    27    27    28    1
    28    28    29    2
    29     4     5   ar
    30     5     6    1
    31    15    16    1
    32    16    17    1
    33    17    18    2
    34    18    10    1
    35    17    12    1
    36     5     1   ar
    37    29    21    1
    38    28    23    1
    39    36    31    1
    40     6     7    1
    41     6     8    1
@<TRIPOS>MOLECULE
*****
 36 41 0 0 0
SMALL
GASTEIGER

@<TRIPOS>ATOM
      1 N         139.5701  145.9286  155.9598 N.ar    1  UNL1       -0.2199
      2 N         138.5663  144.8389  155.7252 N.ar    1  UNL1       -0.1625
      3 C         138.9316  143.6760  156.5993 C.ar    1  UNL1        0.1265
      4 C         140.1613  144.0470  157.3742 C.ar    1  UNL1        0.0924
      5 C         140.5559  145.4391  156.9790 C.ar    1  UNL1        0.1311
      6 N         141.7300  146.2069  157.5097 N.pl3   1  UNL1       -0.3425
      7 H         142.3230  145.7979  158.1808 H       1  UNL1        0.1437
      8 H         141.9077  147.1199  157.1870 H       1  UNL1        0.1437
      9 C         138.2128  153.5294  154.5430 C.3     1  UNL1        0.1367
     10 C         138.6205  152.0861  154.5671 C.2     1  UNL1        0.3518
     11 N         139.4562  151.3886  153.5351 N.2     1  UNL1       -0.0350
     12 C         139.6163  149.9583  153.9575 C.2     1  UNL1        0.2318
     13 C         140.3377  148.8016  153.3318 C.2     1  UNL1        0.0514
     14 C         140.3224  147.4584  153.9992 C.2     1  UNL1        0.0192
     15 C         139.5855  147.2719  155.2924 C.2     1  UNL1        0.0704
     16 C         138.8640  148.4285  155.9181 C.3     1  UNL1        0.1235
     17 C         138.8794  149.7717  155.2507 C.2     1  UNL1        0.2190
     18 N         138.2640  151.0868  155.6274 N.2     1  UNL1       -0.0388
     19 C         140.8716  143.1783  158.3697 C.2     1  UNL1        0.2173
     20 O         142.2165  142.6028  158.0380 O.2     1  UNL1       -0.2848
     21 C         140.2370  142.8850  159.6968 C.2     1  UNL1        0.1199
     22 C         140.6076  141.7649  160.6230 C.2     1  UNL1        0.0235
     23 C         139.7200  141.8479  161.8294 C.2     1  UNL1        0.0152
     24 C         139.6300  141.0083  163.0690 C.2     1  UNL1       -0.0020
     25 C         138.6209  141.3400  164.1280 C.2     1  UNL1       -0.0100
     26 C         137.7017  142.5115  163.9473 C.2     1  UNL1       -0.0227
     27 C         137.7917  143.3513  162.7076 C.3     1  UNL1        0.0715
     28 C         138.8009  143.0195  161.6486 C.2     1  UNL1        0.0634
     29 N         139.1204  143.6604  160.3307 N.2     1  UNL1       -0.2461
     30 C         138.5309  140.5003  165.3677 C.3     1  UNL1        0.0990
     31 N         139.4088  140.8048  166.5452 N.3     1  UNL1       -0.2647
     32 C         139.4601  139.8577  167.7072 C.3     1  UNL1        0.1049
     33 C         140.3380  140.1622  168.8847 C.3     1  UNL1        0.1595
     34 O         141.1645  141.4139  168.9002 O.3     1  UNL1       -0.3508
     35 C         141.1132  142.3610  167.7382 C.3     1  UNL1        0.1595
     36 C         140.2353  142.0565  166.5607 C.3     1  UNL1        0.1049
@<TRIPOS>BOND
     1     9    10    1
     2    10    11    2
     3    11    12    1
     4    12    13    2
     5    13    14    1
     6    14    15    2
     7    15     1    1
     8     1     2   ar
     9     2     3   ar
    10     3     4   ar
    11     4    19    1
    12    19    20    2
    13    19    21    1
    14    21    22    2
    15    22    23    1
    16    23    24    2
    17    24    25    1
    18    25    30    1
    19    30    31    1
    20    31    32    1
    21    32    33    1
    22    33    34    1
    23    34    35    1
    24    35    36    1
    25    25    26    2
    26    26    27    1
    27    27    28    1
    28    28    29    2
    29     4     5   ar
    30     5     6    1
    31    15    16    1
    32    16    17    1
    33    17    18    2
    34    18    10    1
    35    17    12    1
    36     5     1   ar
    37    29    21    1
    38    28    23    1
    39    36    31    1
    40     6     7    1
    41     6     8    1
@<TRIPOS>MOLECULE
*****
 36 41 0 0 0
SMALL
GASTEIGER

@<TRIPOS>ATOM
      1 N         144.2716  141.6246  159.0489 N.ar    1  UNL1       -0.2199
      2 N         144.3633  142.4751  160.2811 N.ar    1  UNL1       -0.1625
      3 C         144.0206  141.6174  161.4630 C.ar    1  UNL1        0.1265
      4 C         143.7171  140.2367  160.9612 C.ar    1  UNL1        0.0924
      5 C         143.8722  140.2412  159.4693 C.ar    1  UNL1        0.1311
      6 N         143.6645  139.0682  158.5577 N.pl3   1  UNL1       -0.3425
      7 H         143.4015  138.1957  158.9304 H       1  UNL1        0.1437
      8 H         143.7911  139.1708  157.5868 H       1  UNL1        0.1437
      9 C         148.0616  143.4309  152.4160 C.3     1  UNL1        0.1367
     10 C         147.1022  143.1667  153.5384 C.2     1  UNL1        0.3518
     11 N         145.6173  143.3747  153.4964 N.2     1  UNL1       -0.0350
     12 C         145.0566  142.9846  154.8318 C.2     1  UNL1        0.2318
     13 C         143.6565  142.9804  155.3701 C.2     1  UNL1        0.0514
     14 C         143.3949  142.5270  156.7758 C.2     1  UNL1        0.0192
     15 C         144.5333  142.0780  157.6432 C.2     1  UNL1        0.0704
     16 C         145.9333  142.0822  157.1049 C.3     1  UNL1        0.1235
     17 C         146.1950  142.5356  155.6992 C.2     1  UNL1        0.2190
     18 N         147.4592  142.6481  154.8998 N.2     1  UNL1       -0.0388
     19 C         143.3270  139.0584  161.8035 C.2     1  UNL1        0.2173
     20 O         143.9349  137.7129  161.5386 O.2     1  UNL1       -0.2848
     21 C         142.3290  139.2256  162.9108 C.2     1  UNL1        0.1199
     22 C         142.6481  139.4181  164.3637 C.2     1  UNL1        0.0235
     23 C         141.3530  139.5411  165.1105 C.2     1  UNL1        0.0152
     24 C         141.0485  139.7442  166.5650 C.2     1  UNL1       -0.0020
     25 C         139.6244  139.8307  167.0282 C.2     1  UNL1       -0.0100
     26 C         138.5049  139.7141  166.0368 C.2     1  UNL1       -0.0227
     27 C         138.8094  139.5111  164.5821 C.3     1  UNL1        0.0715
     28 C         140.2335  139.4246  164.1189 C.2     1  UNL1        0.0634
     29 N         140.8367  139.2296  162.7595 N.2     1  UNL1       -0.2461
     30 C         139.3199  140.0337  168.4829 C.3     1  UNL1        0.0990
     31 N         140.1864  140.9348  169.3119 N.3     1  UNL1       -0.2647
     32 C         140.9927  140.3678  170.4425 C.3     1  UNL1        0.1049
     33 C         141.8592  141.2689  171.2715 C.3     1  UNL1        0.1595
     34 O         141.9193  142.7370  170.9699 O.3     1  UNL1       -0.3508
     35 C         141.1129  143.3041  169.8393 C.3     1  UNL1        0.1595
     36 C         140.2465  142.4030  169.0103 C.3     1  UNL1        0.1049
@<TRIPOS>BOND
     1     9    10    1
     2    10    11    2
     3    11    12    1
     4    12    13    2
     5    13    14    1
     6    14    15    2
     7    15     1    1
     8     1     2   ar
     9     2     3   ar
    10     3     4   ar
    11     4    19    1
    12    19    20    2
    13    19    21    1
    14    21    22    2
    15    22    23    1
    16    23    24    2
    17    24    25    1
    18    25    30    1
    19    30    31    1
    20    31    32    1
    21    32    33    1
    22    33    34    1
    23    34    35    1
    24    35    36    1
    25    25    26    2
    26    26    27    1
    27    27    28    1
    28    28    29    2
    29     4     5   ar
    30     5     6    1
    31    15    16    1
    32    16    17    1
    33    17    18    2
    34    18    10    1
    35    17    12    1
    36     5     1   ar
    37    29    21    1
    38    28    23    1
    39    36    31    1
    40     6     7    1
    41     6     8    1
@<TRIPOS>MOLECULE
*****
 36 41 0 0 0
SMALL
GASTEIGER

@<TRIPOS>ATOM
      1 N         139.7980  144.1672  158.5442 N.ar    1  UNL1       -0.2199
      2 N         139.9644  144.7402  159.9204 N.ar    1  UNL1       -0.1625
      3 C         139.5170  143.7060  160.9104 C.ar    1  UNL1        0.1265
      4 C         139.0740  142.4937  160.1460 C.ar    1  UNL1        0.0924
      5 C         139.2478  142.7787  158.6836 C.ar    1  UNL1        0.1311
      6 N         138.9274  141.8401  157.5583 N.pl3   1  UNL1       -0.3425
      7 H         138.5680  140.9442  157.7518 H       1  UNL1        0.1437
      8 H         139.0766  142.1200  156.6263 H       1  UNL1        0.1437
      9 C         139.8992  149.5454  152.8269 C.3     1  UNL1        0.1367
     10 C         140.0613  148.3733  153.7488 C.2     1  UNL1        0.3518
     11 N         140.9122  147.1641  153.4962 N.2     1  UNL1       -0.0350
     12 C         140.7778  146.2480  154.6764 C.2     1  UNL1        0.2318
     13 C         141.3852  144.9113  154.9837 C.2     1  UNL1        0.0514
     14 C         141.0586  144.2178  156.2729 C.2     1  UNL1        0.0192
     15 C         140.1246  144.8608  157.2549 C.2     1  UNL1        0.0704
     16 C         139.5172  146.1974  156.9475 C.3     1  UNL1        0.1235
     17 C         139.8438  146.8910  155.6583 C.2     1  UNL1        0.2190
     18 N         139.4010  148.2045  155.0850 N.2     1  UNL1       -0.0388
     19 C         138.5495  141.2200  160.7398 C.2     1  UNL1        0.2173
     20 O         137.7520  140.2712  159.8949 O.2     1  UNL1       -0.2848
     21 C         138.8225  140.8950  162.1785 C.2     1  UNL1        0.1199
     22 C         140.0957  141.1767  162.9197 C.2     1  UNL1        0.0235
     23 C         139.9303  140.6870  164.3280 C.2     1  UNL1        0.0152
     24 C         140.8544  140.6977  165.5094 C.2     1  UNL1       -0.0020
     25 C         140.4031  140.1242  166.8198 C.2     1  UNL1       -0.0100
     26 C         139.0276  139.5399  166.9488 C.2     1  UNL1       -0.0227
     27 C         138.1035  139.5292  165.7674 C.3     1  UNL1        0.0715
     28 C         138.5548  140.1028  164.4569 C.2     1  UNL1        0.0634
     29 N         137.8702  140.2313  163.1285 N.2     1  UNL1       -0.2461
     30 C         141.3273  140.1349  168.0013 C.3     1  UNL1        0.0990
     31 N         141.4847  141.3824  168.8191 N.3     1  UNL1       -0.2647
     32 C         140.3502  142.3581  168.9247 C.3     1  UNL1        0.1049
     33 C         140.5077  143.6056  169.7425 C.3     1  UNL1        0.1595
     34 O         141.7995  143.8776  170.4546 O.3     1  UNL1       -0.3508
     35 C         142.9340  142.9019  170.3490 C.3     1  UNL1        0.1595
     36 C         142.7766  141.6544  169.5312 C.3     1  UNL1        0.1049
@<TRIPOS>BOND
     1     9    10    1
     2    10    11    2
     3    11    12    1
     4    12    13    2
     5    13    14    1
     6    14    15    2
     7    15     1    1
     8     1     2   ar
     9     2     3   ar
    10     3     4   ar
    11     4    19    1
    12    19    20    2
    13    19    21    1
    14    21    22    2
    15    22    23    1
    16    23    24    2
    17    24    25    1
    18    25    30    1
    19    30    31    1
    20    31    32    1
    21    32    33    1
    22    33    34    1
    23    34    35    1
    24    35    36    1
    25    25    26    2
    26    26    27    1
    27    27    28    1
    28    28    29    2
    29     4     5   ar
    30     5     6    1
    31    15    16    1
    32    16    17    1
    33    17    18    2
    34    18    10    1
    35    17    12    1
    36     5     1   ar
    37    29    21    1
    38    28    23    1
    39    36    31    1
    40     6     7    1
    41     6     8    1
@<TRIPOS>MOLECULE
*****
 36 41 0 0 0
SMALL
GASTEIGER

@<TRIPOS>ATOM
      1 N         142.7643  138.7242  157.7366 N.ar    1  UNL1       -0.2199
      2 N         144.0127  139.5168  157.4851 N.ar    1  UNL1       -0.1625
      3 C         144.0252  140.6764  158.4365 C.ar    1  UNL1        0.1265
      4 C         142.7843  140.6004  159.2760 C.ar    1  UNL1        0.0924
      5 C         142.0051  139.3939  158.8434 C.ar    1  UNL1        0.1311
      6 N         140.6965  138.9373  159.4170 N.pl3   1  UNL1       -0.3425
      7 H         140.2741  139.4466  160.1460 H       1  UNL1        0.1437
      8 H         140.2600  138.1284  159.0644 H       1  UNL1        0.1437
      9 C         142.3105  131.1933  155.5680 C.3     1  UNL1        0.1367
     10 C         142.1993  132.6744  155.7775 C.2     1  UNL1        0.3518
     11 N         141.3048  133.6077  155.0168 N.2     1  UNL1       -0.0350
     12 C         141.5157  134.9924  155.5536 C.2     1  UNL1        0.2318
     13 C         140.9070  136.3139  155.1888 C.2     1  UNL1        0.0514
     14 C         141.3232  137.5577  155.9165 C.2     1  UNL1        0.0192
     15 C         142.3481  137.4802  157.0089 C.2     1  UNL1        0.0704
     16 C         142.9569  136.1587  157.3737 C.3     1  UNL1        0.1235
     17 C         142.5407  134.9149  156.6461 C.2     1  UNL1        0.2190
     18 N         142.9632  133.4822  156.7844 N.2     1  UNL1       -0.0388
     19 C         142.3917  141.5621  160.3581 C.2     1  UNL1        0.2173
     20 O         141.9848  142.9622  160.0058 O.2     1  UNL1       -0.2848
     21 C         142.4061  141.1238  161.7925 C.2     1  UNL1        0.1199
     22 C         142.5938  142.0144  162.9847 C.2     1  UNL1        0.0235
     23 C         142.5389  141.1589  164.2157 C.2     1  UNL1        0.0152
     24 C         142.6622  141.4890  165.6737 C.2     1  UNL1       -0.0020
     25 C         142.5638  140.3997  166.7002 C.2     1  UNL1       -0.0100
     26 C         142.3421  138.9804  166.2687 C.2     1  UNL1       -0.0227
     27 C         142.2189  138.6503  164.8106 C.3     1  UNL1        0.0715
     28 C         142.3173  139.7396  163.7841 C.2     1  UNL1        0.0634
     29 N         142.2352  139.7179  162.2866 N.2     1  UNL1       -0.2461
     30 C         142.6870  140.7298  168.1582 C.3     1  UNL1        0.0990
     31 N         141.4661  141.0912  168.9512 N.3     1  UNL1       -0.2647
     32 C         141.3703  142.4355  169.6097 C.3     1  UNL1        0.1049
     33 C         140.1494  142.7969  170.4026 C.3     1  UNL1        0.1595
     34 O         139.0243  141.8140  170.5371 O.3     1  UNL1       -0.3508
     35 C         139.1202  140.4696  169.8787 C.3     1  UNL1        0.1595
     36 C         140.3410  140.1082  169.0857 C.3     1  UNL1        0.1049
@<TRIPOS>BOND
     1     9    10    1
     2    10    11    2
     3    11    12    1
     4    12    13    2
     5    13    14    1
     6    14    15    2
     7    15     1    1
     8     1     2   ar
     9     2     3   ar
    10     3     4   ar
    11     4    19    1
    12    19    20    2
    13    19    21    1
    14    21    22    2
    15    22    23    1
    16    23    24    2
    17    24    25    1
    18    25    30    1
    19    30    31    1
    20    31    32    1
    21    32    33    1
    22    33    34    1
    23    34    35    1
    24    35    36    1
    25    25    26    2
    26    26    27    1
    27    27    28    1
    28    28    29    2
    29     4     5   ar
    30     5     6    1
    31    15    16    1
    32    16    17    1
    33    17    18    2
    34    18    10    1
    35    17    12    1
    36     5     1   ar
    37    29    21    1
    38    28    23    1
    39    36    31    1
    40     6     7    1
    41     6     8    1
@<TRIPOS>MOLECULE
*****
 36 41 0 0 0
SMALL
GASTEIGER

@<TRIPOS>ATOM
      1 N         138.7326  140.5763  163.6838 N.ar    1  UNL1       -0.2199
      2 N         137.5125  141.1045  162.9893 N.ar    1  UNL1       -0.1625
      3 C         137.8101  141.1777  161.5209 C.ar    1  UNL1        0.1265
      4 C         139.2142  140.6948  161.3080 C.ar    1  UNL1        0.0924
      5 C         139.7843  140.3231  162.6447 C.ar    1  UNL1        0.1311
      6 N         141.1639  139.7915  162.8978 N.pl3   1  UNL1       -0.3425
      7 H         141.7859  139.6587  162.1462 H       1  UNL1        0.1437
      8 H         141.4475  139.5755  163.8155 H       1  UNL1        0.1437
      9 C         141.0955  141.3584  171.1288 C.3     1  UNL1        0.1367
     10 C         140.4857  140.9913  169.8084 C.2     1  UNL1        0.3518
     11 N         139.5043  139.8826  169.5683 N.2     1  UNL1       -0.0350
     12 C         139.1622  139.8745  168.1079 C.2     1  UNL1        0.2318
     13 C         138.2491  139.0047  167.2957 C.2     1  UNL1        0.0514
     14 C         138.1059  139.2386  165.8211 C.2     1  UNL1        0.0192
     15 C         138.8758  140.3424  165.1585 C.2     1  UNL1        0.0704
     16 C         139.7890  141.2122  165.9707 C.3     1  UNL1        0.1235
     17 C         139.9321  140.9782  167.4454 C.2     1  UNL1        0.2190
     18 N         140.7501  141.6684  168.4964 N.2     1  UNL1       -0.0388
     19 C         139.9237  140.6002  159.9897 C.2     1  UNL1        0.2173
     20 O         140.4125  139.2713  159.4947 O.2     1  UNL1       -0.2848
     21 C         140.1442  141.8345  159.1664 C.2     1  UNL1        0.1199
     22 C         139.2929  142.2933  158.0198 C.2     1  UNL1        0.0235
     23 C         139.8773  143.5691  157.4899 C.2     1  UNL1        0.0152
     24 C         139.4621  144.4732  156.3674 C.2     1  UNL1       -0.0020
     25 C         140.2593  145.7070  156.0639 C.2     1  UNL1       -0.0100
     26 C         141.4719  146.0366  156.8831 C.2     1  UNL1       -0.0227
     27 C         141.8872  145.1325  158.0056 C.3     1  UNL1        0.0715
     28 C         141.0899  143.8987  158.3091 C.2     1  UNL1        0.0634
     29 N         141.2548  142.8267  159.3451 N.2     1  UNL1       -0.2461
     30 C         139.8440  146.6111  154.9414 C.3     1  UNL1        0.0990
     31 N         139.4130  148.0181  155.2319 N.3     1  UNL1       -0.2647
     32 C         139.6936  149.1083  154.2405 C.3     1  UNL1        0.1049
     33 C         139.2626  150.5153  154.5310 C.3     1  UNL1        0.1595
     34 O         138.5509  150.8322  155.8129 O.3     1  UNL1       -0.3508
     35 C         138.2703  149.7420  156.8043 C.3     1  UNL1        0.1595
     36 C         138.7014  148.3350  156.5138 C.3     1  UNL1        0.1049
@<TRIPOS>BOND
     1     9    10    1
     2    10    11    2
     3    11    12    1
     4    12    13    2
     5    13    14    1
     6    14    15    2
     7    15     1    1
     8     1     2   ar
     9     2     3   ar
    10     3     4   ar
    11     4    19    1
    12    19    20    2
    13    19    21    1
    14    21    22    2
    15    22    23    1
    16    23    24    2
    17    24    25    1
    18    25    30    1
    19    30    31    1
    20    31    32    1
    21    32    33    1
    22    33    34    1
    23    34    35    1
    24    35    36    1
    25    25    26    2
    26    26    27    1
    27    27    28    1
    28    28    29    2
    29     4     5   ar
    30     5     6    1
    31    15    16    1
    32    16    17    1
    33    17    18    2
    34    18    10    1
    35    17    12    1
    36     5     1   ar
    37    29    21    1
    38    28    23    1
    39    36    31    1
    40     6     7    1
    41     6     8    1
