@<TRIPOS>MOLECULE
*****
 33 38 0 0 0
SMALL
GASTEIGER

@<TRIPOS>ATOM
      1 C         142.2722  140.5454  163.0182 C.ar    1  UNL1        0.1170
      2 N         141.8799  140.3892  164.4575 N.ar    1  UNL1       -0.2264
      3 C         141.0376  141.4369  165.1232 C.ar    1  UNL1        0.1602
      4 N         140.5877  142.6406  164.3496 N.ar    1  UNL1       -0.2091
      5 C         140.9800  142.7967  162.9102 C.ar    1  UNL1        0.1690
      6 C         141.8222  141.7492  162.2445 C.ar    1  UNL1        0.1850
      7 O         142.2145  141.9053  160.8052 O.3     1  UNL1       -0.4695
      8 C         141.7646  143.1091  160.0315 C.3     1  UNL1        0.2277
      9 C         140.9224  144.1567  160.6972 C.3     1  UNL1        0.1477
     10 C         140.4724  145.3604  159.9236 C.3     1  UNL1        0.1657
     11 O         139.6302  146.4080  160.5893 O.3     1  UNL1       -0.3501
     12 C         139.2379  146.2519  162.0286 C.3     1  UNL1        0.1636
     13 C         139.6878  145.0481  162.8023 C.3     1  UNL1        0.1244
     14 N         140.5300  144.0006  162.1366 N.pl3   1  UNL1       -0.2840
     15 C         140.6453  141.2807  166.5626 C.2     1  UNL1        0.0230
     16 C         141.3453  142.0798  167.6216 C.2     1  UNL1       -0.0005
     17 C         140.9530  141.9236  169.0610 C.2     1  UNL1        0.0010
     18 C         139.8607  140.9684  169.4412 C.2     1  UNL1        0.0153
     19 C         139.1608  140.1694  168.3822 C.2     1  UNL1        0.0669
     20 N         138.0555  139.1579  168.4542 N.2     1  UNL1       -0.2478
     21 C         137.7646  138.6889  167.0594 C.2     1  UNL1        0.0946
     22 C         138.6902  139.4106  166.1254 C.2     1  UNL1        0.0046
     23 C         139.5531  140.3255  166.9428 C.3     1  UNL1        0.0888
     24 C         143.1144  139.4978  162.3525 C.3     1  UNL1        0.1533
     25 C         141.7755  139.1702  161.7608 C.3     1  UNL1        0.0599
     26 C         141.6422  138.0353  160.7892 C.3     1  UNL1        0.1443
     27 O         142.8480  137.2277  160.4093 O.3     1  UNL1       -0.3536
     28 C         144.1868  137.5553  161.0010 C.3     1  UNL1        0.1443
     29 C         144.3201  138.6903  161.9725 C.3     1  UNL1        0.0599
     30 C         145.2072  140.8805  163.9982 C.3     1  UNL1        0.1764
     31 S         144.1608  140.1891  163.1753 S.O2    1  UNL1       -0.0062
     32 O         144.4082  141.0814  162.5935 O.2     1  UNL1       -0.1727
     33 O         144.0721  139.1002  164.2031 O.2     1  UNL1       -0.1727
@<TRIPOS>BOND
     1    30    31    1
     2    31    32    2
     3    31    33    2
     4    31    24    1
     5    24     1    1
     6     1     2   ar
     7     2     3   ar
     8     3    15    1
     9    15    16    2
    10    16    17    1
    11    17    18    2
    12    18    19    1
    13    19    20    2
    14    20    21    1
    15    21    22    2
    16    22    23    1
    17     3     4   ar
    18     4     5   ar
    19     5     6   ar
    20     6     7    1
    21     7     8    1
    22     9     8    1
    23     9    10    1
    24    10    11    1
    25    11    12    1
    26    12    13    1
    27    13    14    1
    28    24    25    1
    29    25    26    1
    30    26    27    1
    31    27    28    1
    32    28    29    1
    33    29    24    1
    34     6     1   ar
    35    14     9    1
    36    23    15    1
    37    14     5    1
    38    23    19    1
@<TRIPOS>MOLECULE
*****
 33 38 0 0 0
SMALL
GASTEIGER

@<TRIPOS>ATOM
      1 C         141.3134  140.2449  162.5071 C.ar    1  UNL1        0.1170
      2 N         141.0570  140.1204  163.9797 N.ar    1  UNL1       -0.2264
      3 C         140.5223  141.2916  164.7495 C.ar    1  UNL1        0.1602
      4 N         140.2441  142.5872  164.0467 N.ar    1  UNL1       -0.2091
      5 C         140.5005  142.7116  162.5740 C.ar    1  UNL1        0.1690
      6 C         141.0352  141.5405  161.8042 C.ar    1  UNL1        0.1850
      7 O         141.2916  141.6650  160.3315 O.3     1  UNL1       -0.4695
      8 C         141.0134  142.9605  159.6287 C.3     1  UNL1        0.2277
      9 C         140.4787  144.1317  160.3984 C.3     1  UNL1        0.1477
     10 C         140.2005  145.4273  159.6956 C.3     1  UNL1        0.1657
     11 O         139.6659  146.5984  160.4654 O.3     1  UNL1       -0.3501
     12 C         139.4094  146.4739  161.9380 C.3     1  UNL1        0.1636
     13 C         139.6877  145.1784  162.6409 C.3     1  UNL1        0.1244
     14 N         140.2223  144.0073  161.8711 N.pl3   1  UNL1       -0.2840
     15 C         140.2659  141.1672  166.2222 C.2     1  UNL1        0.0230
     16 C         141.0143  142.0353  167.1898 C.2     1  UNL1       -0.0005
     17 C         140.7579  141.9109  168.6625 C.2     1  UNL1        0.0010
     18 C         139.7530  140.9182  169.1675 C.2     1  UNL1        0.0153
     19 C         139.0046  140.0501  168.1999 C.2     1  UNL1        0.0669
     20 N         137.9627  138.9900  168.4010 N.2     1  UNL1       -0.2478
     21 C         137.5751  138.4592  167.0526 C.2     1  UNL1        0.0946
     22 C         138.3776  139.1914  166.0182 C.2     1  UNL1        0.0046
     23 C         139.2610  140.1746  166.7273 C.3     1  UNL1        0.0888
     24 C         141.8480  139.0738  161.7373 C.3     1  UNL1        0.1533
     25 C         143.0692  139.9443  161.7686 C.3     1  UNL1        0.0599
     26 C         144.3364  139.4826  161.1121 C.3     1  UNL1        0.1443
     27 O         144.3825  138.1503  160.4242 O.3     1  UNL1       -0.3536
     28 C         143.1613  137.2799  160.3929 C.3     1  UNL1        0.1443
     29 C         141.8941  137.7416  161.0494 C.3     1  UNL1        0.0599
     30 C         139.0343  138.1462  162.2094 C.3     1  UNL1        0.1764
     31 S         140.4412  138.6100  161.9733 S.O2    1  UNL1       -0.0062
     32 O         139.8487  139.1878  161.2586 O.2     1  UNL1       -0.1727
     33 O         140.9280  137.6775  163.0427 O.2     1  UNL1       -0.1727
@<TRIPOS>BOND
     1    30    31    1
     2    31    32    2
     3    31    33    2
     4    31    24    1
     5    24     1    1
     6     1     2   ar
     7     2     3   ar
     8     3    15    1
     9    15    16    2
    10    16    17    1
    11    17    18    2
    12    18    19    1
    13    19    20    2
    14    20    21    1
    15    21    22    2
    16    22    23    1
    17     3     4   ar
    18     4     5   ar
    19     5     6   ar
    20     6     7    1
    21     7     8    1
    22     9     8    1
    23     9    10    1
    24    10    11    1
    25    11    12    1
    26    12    13    1
    27    13    14    1
    28    24    25    1
    29    25    26    1
    30    26    27    1
    31    27    28    1
    32    28    29    1
    33    29    24    1
    34     6     1   ar
    35    14     9    1
    36    23    15    1
    37    14     5    1
    38    23    19    1
@<TRIPOS>MOLECULE
*****
 33 38 0 0 0
SMALL
GASTEIGER

@<TRIPOS>ATOM
      1 C         142.2951  140.3519  163.1288 C.ar    1  UNL1        0.1170
      2 N         141.9378  140.1352  164.5694 N.ar    1  UNL1       -0.2264
      3 C         141.0995  141.1461  165.2945 C.ar    1  UNL1        0.1602
      4 N         140.6186  142.3735  164.5789 N.ar    1  UNL1       -0.2091
      5 C         140.9760  142.5902  163.1383 C.ar    1  UNL1        0.1690
      6 C         141.8142  141.5795  162.4132 C.ar    1  UNL1        0.1850
      7 O         142.1715  141.7962  160.9726 O.3     1  UNL1       -0.4695
      8 C         141.6906  143.0236  160.2571 C.3     1  UNL1        0.2277
      9 C         140.8524  144.0344  160.9821 C.3     1  UNL1        0.1477
     10 C         140.3715  145.2618  160.2665 C.3     1  UNL1        0.1657
     11 O         139.5332  146.2726  160.9915 O.3     1  UNL1       -0.3501
     12 C         139.1759  146.0559  162.4322 C.3     1  UNL1        0.1636
     13 C         139.6568  144.8285  163.1477 C.3     1  UNL1        0.1244
     14 N         140.4950  143.8177  162.4227 N.pl3   1  UNL1       -0.2840
     15 C         140.7422  140.9294  166.7351 C.2     1  UNL1        0.0230
     16 C         139.4731  140.2145  167.0937 C.2     1  UNL1       -0.0005
     17 C         139.1158  139.9978  168.5343 C.2     1  UNL1        0.0010
     18 C         140.0275  140.4960  169.6163 C.2     1  UNL1        0.0153
     19 C         141.2964  141.2108  169.2577 C.2     1  UNL1        0.0669
     20 N         142.3834  141.8100  170.1000 N.2     1  UNL1       -0.2478
     21 C         143.4125  142.3970  169.1800 C.2     1  UNL1        0.0946
     22 C         142.9616  142.1606  167.7691 C.2     1  UNL1        0.0046
     23 C         141.6538  141.4275  167.8170 C.3     1  UNL1        0.0888
     24 C         143.1334  139.3412  162.4038 C.3     1  UNL1        0.1533
     25 C         141.7898  139.0408  161.8081 C.3     1  UNL1        0.0599
     26 C         141.6501  137.9559  160.7818 C.3     1  UNL1        0.1443
     27 O         142.8539  137.1713  160.3511 O.3     1  UNL1       -0.3536
     28 C         144.1973  137.4718  160.9467 C.3     1  UNL1        0.1443
     29 C         144.3371  138.5567  161.9730 C.3     1  UNL1        0.0599
     30 C         145.2381  140.6442  164.0986 C.3     1  UNL1        0.1764
     31 S         144.1857  139.9926  163.2512 S.O2    1  UNL1       -0.0062
     32 O         144.0512  139.5377  164.2365 O.2     1  UNL1       -0.1727
     33 O         144.6384  140.7984  162.0697 O.2     1  UNL1       -0.1727
@<TRIPOS>BOND
     1    30    31    1
     2    31    32    2
     3    31    33    2
     4    31    24    1
     5    24     1    1
     6     1     2   ar
     7     2     3   ar
     8     3    15    1
     9    15    16    2
    10    16    17    1
    11    17    18    2
    12    18    19    1
    13    19    20    2
    14    20    21    1
    15    21    22    2
    16    22    23    1
    17     3     4   ar
    18     4     5   ar
    19     5     6   ar
    20     6     7    1
    21     7     8    1
    22     9     8    1
    23     9    10    1
    24    10    11    1
    25    11    12    1
    26    12    13    1
    27    13    14    1
    28    24    25    1
    29    25    26    1
    30    26    27    1
    31    27    28    1
    32    28    29    1
    33    29    24    1
    34     6     1   ar
    35    14     9    1
    36    23    15    1
    37    14     5    1
    38    23    19    1
@<TRIPOS>MOLECULE
*****
 33 38 0 0 0
SMALL
GASTEIGER

@<TRIPOS>ATOM
      1 C         141.1438  139.9769  162.4439 C.ar    1  UNL1        0.1170
      2 N         140.7269  139.6949  163.8569 N.ar    1  UNL1       -0.2264
      3 C         140.0894  140.7744  164.6805 C.ar    1  UNL1        0.1602
      4 N         139.8688  142.1360  164.0910 N.ar    1  UNL1       -0.2091
      5 C         140.2857  142.4180  162.6780 C.ar    1  UNL1        0.1690
      6 C         140.9232  141.3385  161.8544 C.ar    1  UNL1        0.1850
      7 O         141.3401  141.6206  160.4414 O.3     1  UNL1       -0.4695
      8 C         141.1195  142.9821  159.8519 C.3     1  UNL1        0.2277
      9 C         140.4820  144.0617  160.6755 C.3     1  UNL1        0.1477
     10 C         140.2615  145.4232  160.0860 C.3     1  UNL1        0.1657
     11 O         139.6240  146.5027  160.9096 O.3     1  UNL1       -0.3501
     12 C         139.2071  146.2207  162.3226 C.3     1  UNL1        0.1636
     13 C         139.4277  144.8591  162.9121 C.3     1  UNL1        0.1244
     14 N         140.0651  143.7796  162.0885 N.pl3   1  UNL1       -0.2840
     15 C         139.6725  140.4924  166.0935 C.2     1  UNL1        0.0230
     16 C         138.5759  139.5068  166.3694 C.2     1  UNL1       -0.0005
     17 C         138.1590  139.2247  167.7824 C.2     1  UNL1        0.0010
     18 C         138.8387  139.9283  168.9195 C.2     1  UNL1        0.0153
     19 C         139.9353  140.9139  168.6436 C.2     1  UNL1        0.0669
     20 N         140.7818  141.7542  169.5532 N.2     1  UNL1       -0.2478
     21 C         141.7219  142.5556  168.7023 C.2     1  UNL1        0.0946
     22 C         141.4564  142.2105  167.2669 C.2     1  UNL1        0.0046
     23 C         140.3522  141.1959  167.2306 C.3     1  UNL1        0.0888
     24 C         141.7813  138.8974  161.6203 C.3     1  UNL1        0.1533
     25 C         142.9903  139.7219  161.9498 C.3     1  UNL1        0.0599
     26 C         144.3399  139.3107  161.4407 C.3     1  UNL1        0.1443
     27 O         144.4807  138.0750  160.6019 O.3     1  UNL1       -0.3536
     28 C         143.2716  137.2506  160.2725 C.3     1  UNL1        0.1443
     29 C         141.9220  137.6618  160.7816 C.3     1  UNL1        0.0599
     30 C         138.9204  137.9983  161.5334 C.3     1  UNL1        0.1764
     31 S         140.3509  138.4479  161.5768 S.O2    1  UNL1       -0.0062
     32 O         139.8729  139.1520  160.8902 O.2     1  UNL1       -0.1727
     33 O         140.6698  137.3402  162.5368 O.2     1  UNL1       -0.1727
@<TRIPOS>BOND
     1    30    31    1
     2    31    32    2
     3    31    33    2
     4    31    24    1
     5    24     1    1
     6     1     2   ar
     7     2     3   ar
     8     3    15    1
     9    15    16    2
    10    16    17    1
    11    17    18    2
    12    18    19    1
    13    19    20    2
    14    20    21    1
    15    21    22    2
    16    22    23    1
    17     3     4   ar
    18     4     5   ar
    19     5     6   ar
    20     6     7    1
    21     7     8    1
    22     9     8    1
    23     9    10    1
    24    10    11    1
    25    11    12    1
    26    12    13    1
    27    13    14    1
    28    24    25    1
    29    25    26    1
    30    26    27    1
    31    27    28    1
    32    28    29    1
    33    29    24    1
    34     6     1   ar
    35    14     9    1
    36    23    15    1
    37    14     5    1
    38    23    19    1
@<TRIPOS>MOLECULE
*****
 33 38 0 0 0
SMALL
GASTEIGER

@<TRIPOS>ATOM
      1 C         141.3882  142.7419  163.0564 C.ar    1  UNL1        0.1170
      2 N         141.5365  142.3169  164.4873 N.ar    1  UNL1       -0.2264
      3 C         142.0038  140.9292  164.8129 C.ar    1  UNL1        0.1602
      4 N         142.3227  139.9665  163.7077 N.ar    1  UNL1       -0.2091
      5 C         142.1743  140.3915  162.2768 C.ar    1  UNL1        0.1690
      6 C         141.7071  141.7791  161.9512 C.ar    1  UNL1        0.1850
      7 O         141.5587  142.2041  160.5203 O.3     1  UNL1       -0.4695
      8 C         141.8776  141.2415  159.4151 C.3     1  UNL1        0.2277
      9 C         142.3449  139.8537  159.7407 C.3     1  UNL1        0.1477
     10 C         142.6637  138.8911  158.6355 C.3     1  UNL1        0.1657
     11 O         143.1310  137.5035  158.9611 O.3     1  UNL1       -0.3501
     12 C         143.2794  137.0785  160.3920 C.3     1  UNL1        0.1636
     13 C         142.9605  138.0411  161.4972 C.3     1  UNL1        0.1244
     14 N         142.4932  139.4288  161.1716 N.pl3   1  UNL1       -0.2840
     15 C         142.1522  140.5042  166.2438 C.2     1  UNL1        0.0230
     16 C         142.8937  139.2440  166.5788 C.2     1  UNL1       -0.0005
     17 C         143.0421  138.8190  168.0097 C.2     1  UNL1        0.0010
     18 C         142.4489  139.6542  169.1055 C.2     1  UNL1        0.0153
     19 C         141.7075  140.9143  168.7704 C.2     1  UNL1        0.0669
     20 N         141.0205  141.9335  169.6303 N.2     1  UNL1       -0.2478
     21 C         140.4476  142.9884  168.7309 C.2     1  UNL1        0.0946
     22 C         140.7805  142.6211  167.3151 C.2     1  UNL1        0.0046
     23 C         141.5591  141.3393  167.3396 C.3     1  UNL1        0.0888
     24 C         140.9209  144.1295  162.7308 C.3     1  UNL1        0.1533
     25 C         139.6146  143.3945  162.6726 C.3     1  UNL1        0.0599
     26 C         138.3511  144.1350  162.3483 C.3     1  UNL1        0.1443
     27 O         138.3939  145.6106  162.0821 O.3     1  UNL1       -0.3536
     28 C         139.7002  146.3456  162.1403 C.3     1  UNL1        0.1443
     29 C         140.9636  145.6051  162.4646 C.3     1  UNL1        0.0599
     30 C         143.8580  144.6357  163.0733 C.3     1  UNL1        0.1764
     31 S         142.3894  144.3826  162.9020 S.O2    1  UNL1       -0.0062
     32 O         142.5509  144.2852  163.9792 O.2     1  UNL1       -0.1727
     33 O         142.5274  144.5834  161.4219 O.2     1  UNL1       -0.1727
@<TRIPOS>BOND
     1    30    31    1
     2    31    32    2
     3    31    33    2
     4    31    24    1
     5    24     1    1
     6     1     2   ar
     7     2     3   ar
     8     3    15    1
     9    15    16    2
    10    16    17    1
    11    17    18    2
    12    18    19    1
    13    19    20    2
    14    20    21    1
    15    21    22    2
    16    22    23    1
    17     3     4   ar
    18     4     5   ar
    19     5     6   ar
    20     6     7    1
    21     7     8    1
    22     9     8    1
    23     9    10    1
    24    10    11    1
    25    11    12    1
    26    12    13    1
    27    13    14    1
    28    24    25    1
    29    25    26    1
    30    26    27    1
    31    27    28    1
    32    28    29    1
    33    29    24    1
    34     6     1   ar
    35    14     9    1
    36    23    15    1
    37    14     5    1
    38    23    19    1
@<TRIPOS>MOLECULE
*****
 33 38 0 0 0
SMALL
GASTEIGER

@<TRIPOS>ATOM
      1 C         139.9960  139.9748  164.1597 C.ar    1  UNL1        0.1170
      2 N         139.8424  139.9030  165.6501 N.ar    1  UNL1       -0.2264
      3 C         140.5738  140.8755  166.5272 C.ar    1  UNL1        0.1602
      4 N         141.4589  141.9198  165.9139 N.ar    1  UNL1       -0.2091
      5 C         141.6125  141.9916  164.4235 C.ar    1  UNL1        0.1690
      6 C         140.8811  141.0191  163.5464 C.ar    1  UNL1        0.1850
      7 O         141.0347  141.0909  162.0561 O.3     1  UNL1       -0.4695
      8 C         141.9198  142.1351  161.4428 C.3     1  UNL1        0.2277
      9 C         142.6512  143.1077  162.3198 C.3     1  UNL1        0.1477
     10 C         143.5363  144.1519  161.7065 C.3     1  UNL1        0.1657
     11 O         144.2677  145.1244  162.5836 O.3     1  UNL1       -0.3501
     12 C         144.1140  145.0526  164.0740 C.3     1  UNL1        0.1636
     13 C         143.2290  144.0084  164.6873 C.3     1  UNL1        0.1244
     14 N         142.4976  143.0359  163.8102 N.pl3   1  UNL1       -0.2840
     15 C         140.4202  140.8037  168.0176 C.2     1  UNL1        0.0230
     16 C         139.2114  140.1475  168.6162 C.2     1  UNL1       -0.0005
     17 C         139.0578  140.0757  170.1066 C.2     1  UNL1        0.0010
     18 C         140.1130  140.6601  170.9984 C.2     1  UNL1        0.0153
     19 C         141.3217  141.3163  170.3997 C.2     1  UNL1        0.0669
     20 N         142.5173  141.9753  171.0212 N.2     1  UNL1       -0.2478
     21 C         143.4098  142.4544  169.9150 C.2     1  UNL1        0.0946
     22 C         142.7658  142.0915  168.6098 C.2     1  UNL1        0.0046
     23 C         141.4753  141.3881  168.9093 C.3     1  UNL1        0.0888
     24 C         139.2646  139.0023  163.2827 C.3     1  UNL1        0.1533
     25 C         138.5478  140.2694  162.9210 C.3     1  UNL1        0.0599
     26 C         137.4368  140.2412  161.9137 C.3     1  UNL1        0.1443
     27 O         137.0425  138.9459  161.2679 O.3     1  UNL1       -0.3536
     28 C         137.7593  137.6789  161.6296 C.3     1  UNL1        0.1443
     29 C         138.8704  137.7071  162.6370 C.3     1  UNL1        0.0599
     30 C         141.2062  137.1437  164.6153 C.3     1  UNL1        0.1764
     31 S         140.2354  138.0730  163.9489 S.O2    1  UNL1       -0.0062
     32 O         141.1769  138.2516  163.4221 O.2     1  UNL1       -0.1727
     33 O         139.1466  137.5887  164.8600 O.2     1  UNL1       -0.1727
@<TRIPOS>BOND
     1    30    31    1
     2    31    32    2
     3    31    33    2
     4    31    24    1
     5    24     1    1
     6     1     2   ar
     7     2     3   ar
     8     3    15    1
     9    15    16    2
    10    16    17    1
    11    17    18    2
    12    18    19    1
    13    19    20    2
    14    20    21    1
    15    21    22    2
    16    22    23    1
    17     3     4   ar
    18     4     5   ar
    19     5     6   ar
    20     6     7    1
    21     7     8    1
    22     9     8    1
    23     9    10    1
    24    10    11    1
    25    11    12    1
    26    12    13    1
    27    13    14    1
    28    24    25    1
    29    25    26    1
    30    26    27    1
    31    27    28    1
    32    28    29    1
    33    29    24    1
    34     6     1   ar
    35    14     9    1
    36    23    15    1
    37    14     5    1
    38    23    19    1
@<TRIPOS>MOLECULE
*****
 33 38 0 0 0
SMALL
GASTEIGER

@<TRIPOS>ATOM
      1 C         139.4230  142.6476  160.7782 C.ar    1  UNL1        0.1170
      2 N         138.8366  143.3008  159.5619 N.ar    1  UNL1       -0.2264
      3 C         139.1059  142.7305  158.2008 C.ar    1  UNL1        0.1602
      4 N         139.9615  141.5070  158.0562 N.ar    1  UNL1       -0.2091
      5 C         140.5478  140.8537  159.2725 C.ar    1  UNL1        0.1690
      6 C         140.2787  141.4240  160.6335 C.ar    1  UNL1        0.1850
      7 O         140.8650  140.7708  161.8498 O.3     1  UNL1       -0.4695
      8 C         141.7206  139.5473  161.7052 C.3     1  UNL1        0.2277
      9 C         141.9899  138.9769  160.3441 C.3     1  UNL1        0.1477
     10 C         142.8455  137.7534  160.1995 C.3     1  UNL1        0.1657
     11 O         143.1147  137.1832  158.8385 O.3     1  UNL1       -0.3501
     12 C         142.5283  137.8364  157.6222 C.3     1  UNL1        0.1636
     13 C         141.6727  139.0599  157.7668 C.3     1  UNL1        0.1244
     14 N         141.4035  139.6302  159.1278 N.pl3   1  UNL1       -0.2840
     15 C         138.5195  143.3837  156.9845 C.2     1  UNL1        0.0230
     16 C         137.2467  142.8571  156.3904 C.2     1  UNL1       -0.0005
     17 C         136.6603  143.5103  155.1741 C.2     1  UNL1        0.0010
     18 C         137.3467  144.6901  154.5519 C.2     1  UNL1        0.0153
     19 C         138.6194  145.2167  155.1460 C.2     1  UNL1        0.0669
     20 N         139.5138  146.3554  154.7547 N.2     1  UNL1       -0.2478
     21 C         140.6531  146.4060  155.7292 C.2     1  UNL1        0.0946
     22 C         140.4626  145.2985  156.7228 C.2     1  UNL1        0.0046
     23 C         139.2057  144.5634  156.3623 C.3     1  UNL1        0.0888
     24 C         139.1538  143.2178  162.1391 C.3     1  UNL1        0.1533
     25 C         138.2225  142.0421  162.1605 C.3     1  UNL1        0.0599
     26 C         137.3780  141.7762  163.3713 C.3     1  UNL1        0.1443
     27 O         137.4647  142.6861  164.5608 O.3     1  UNL1       -0.3536
     28 C         138.3960  143.8618  164.5393 C.3     1  UNL1        0.1443
     29 C         139.2405  144.1276  163.3286 C.3     1  UNL1        0.0599
     30 C         141.2033  145.1732  161.1510 C.3     1  UNL1        0.1764
     31 S         140.1786  144.1954  161.6451 S.O2    1  UNL1       -0.0062
     32 O         141.1295  143.6724  161.7790 O.2     1  UNL1       -0.1727
     33 O         139.0898  145.1788  161.3326 O.2     1  UNL1       -0.1727
@<TRIPOS>BOND
     1    30    31    1
     2    31    32    2
     3    31    33    2
     4    31    24    1
     5    24     1    1
     6     1     2   ar
     7     2     3   ar
     8     3    15    1
     9    15    16    2
    10    16    17    1
    11    17    18    2
    12    18    19    1
    13    19    20    2
    14    20    21    1
    15    21    22    2
    16    22    23    1
    17     3     4   ar
    18     4     5   ar
    19     5     6   ar
    20     6     7    1
    21     7     8    1
    22     9     8    1
    23     9    10    1
    24    10    11    1
    25    11    12    1
    26    12    13    1
    27    13    14    1
    28    24    25    1
    29    25    26    1
    30    26    27    1
    31    27    28    1
    32    28    29    1
    33    29    24    1
    34     6     1   ar
    35    14     9    1
    36    23    15    1
    37    14     5    1
    38    23    19    1
@<TRIPOS>MOLECULE
*****
 33 38 0 0 0
SMALL
GASTEIGER

@<TRIPOS>ATOM
      1 C         141.2422  140.0021  161.5646 C.ar    1  UNL1        0.1170
      2 N         140.7358  139.5701  162.9088 N.ar    1  UNL1       -0.2264
      3 C         140.0303  140.5527  163.7957 C.ar    1  UNL1        0.1602
      4 N         139.8311  141.9673  163.3384 N.ar    1  UNL1       -0.2091
      5 C         140.3375  142.3994  161.9942 C.ar    1  UNL1        0.1690
      6 C         141.0430  141.4168  161.1073 C.ar    1  UNL1        0.1850
      7 O         141.5494  141.8488  159.7630 O.3     1  UNL1       -0.4695
      8 C         141.3502  143.2634  159.3057 C.3     1  UNL1        0.2277
      9 C         140.6447  144.2461  160.1927 C.3     1  UNL1        0.1477
     10 C         140.4455  145.6607  159.7353 C.3     1  UNL1        0.1657
     11 O         139.7400  146.6433  160.6223 O.3     1  UNL1       -0.3501
     12 C         139.2336  146.2113  161.9665 C.3     1  UNL1        0.1636
     13 C         139.4328  144.7966  162.4238 C.3     1  UNL1        0.1244
     14 N         140.1383  143.8140  161.5369 N.pl3   1  UNL1       -0.2840
     15 C         139.5239  140.1207  165.1400 C.2     1  UNL1        0.0230
     16 C         138.4712  139.0566  165.2384 C.2     1  UNL1       -0.0005
     17 C         137.9649  138.6246  166.5826 C.2     1  UNL1        0.0010
     18 C         138.5112  139.2567  167.8284 C.2     1  UNL1        0.0153
     19 C         139.5638  140.3208  167.7300 C.2     1  UNL1        0.0669
     20 N         140.2853  141.1186  168.7754 N.2     1  UNL1       -0.2478
     21 C         141.2376  142.0437  168.0773 C.2     1  UNL1        0.0946
     22 C         141.1046  141.8176  166.6004 C.2     1  UNL1        0.0046
     23 C         140.0702  140.7528  166.3858 C.3     1  UNL1        0.0888
     24 C         141.9477  139.0195  160.6776 C.3     1  UNL1        0.1533
     25 C         140.6883  139.2246  159.8890 C.3     1  UNL1        0.0599
     26 C         140.4868  138.4944  158.5944 C.3     1  UNL1        0.1443
     27 O         141.5447  137.5590  158.0883 O.3     1  UNL1       -0.3536
     28 C         142.8040  137.3539  158.8769 C.3     1  UNL1        0.1443
     29 C         143.0056  138.0841  160.1715 C.3     1  UNL1        0.0599
     30 C         143.9764  139.2917  162.8709 C.3     1  UNL1        0.1764
     31 S         142.9620  139.1556  161.7742 S.O2    1  UNL1       -0.0062
     32 O         143.4492  140.1124  161.5669 O.2     1  UNL1       -0.1727
     33 O         142.5264  137.8368  162.3410 O.2     1  UNL1       -0.1727
@<TRIPOS>BOND
     1    30    31    1
     2    31    32    2
     3    31    33    2
     4    31    24    1
     5    24     1    1
     6     1     2   ar
     7     2     3   ar
     8     3    15    1
     9    15    16    2
    10    16    17    1
    11    17    18    2
    12    18    19    1
    13    19    20    2
    14    20    21    1
    15    21    22    2
    16    22    23    1
    17     3     4   ar
    18     4     5   ar
    19     5     6   ar
    20     6     7    1
    21     7     8    1
    22     9     8    1
    23     9    10    1
    24    10    11    1
    25    11    12    1
    26    12    13    1
    27    13    14    1
    28    24    25    1
    29    25    26    1
    30    26    27    1
    31    27    28    1
    32    28    29    1
    33    29    24    1
    34     6     1   ar
    35    14     9    1
    36    23    15    1
    37    14     5    1
    38    23    19    1
@<TRIPOS>MOLECULE
*****
 33 38 0 0 0
SMALL
GASTEIGER

@<TRIPOS>ATOM
      1 C         143.0490  140.6758  162.1702 C.ar    1  UNL1        0.1170
      2 N         143.5005  140.1173  160.8533 N.ar    1  UNL1       -0.2264
      3 C         143.1505  140.8262  159.5785 C.ar    1  UNL1        0.1602
      4 N         142.3490  142.0934  159.6206 N.ar    1  UNL1       -0.2091
      5 C         141.8976  142.6518  160.9375 C.ar    1  UNL1        0.1690
      6 C         142.2475  141.9431  162.2123 C.ar    1  UNL1        0.1850
      7 O         141.7960  142.5015  163.5292 O.3     1  UNL1       -0.4695
      8 C         140.9946  143.7688  163.5714 C.3     1  UNL1        0.2277
      9 C         140.6446  144.4776  162.2965 C.3     1  UNL1        0.1477
     10 C         139.8432  145.7448  162.3386 C.3     1  UNL1        0.1657
     11 O         139.4932  146.4535  161.0638 O.3     1  UNL1       -0.3501
     12 C         139.9447  145.8951  159.7469 C.3     1  UNL1        0.1636
     13 C         140.7461  144.6279  159.7048 C.3     1  UNL1        0.1244
     14 N         141.0961  143.9191  160.9796 N.pl3   1  UNL1       -0.2840
     15 C         143.6020  140.2677  158.2615 C.2     1  UNL1        0.0230
     16 C         142.9592  139.0286  157.7124 C.2     1  UNL1       -0.0005
     17 C         143.4107  138.4701  156.3955 C.2     1  UNL1        0.0010
     18 C         144.5049  139.1508  155.6277 C.2     1  UNL1        0.0153
     19 C         145.1477  140.3898  156.1769 C.2     1  UNL1        0.0669
     20 N         146.2409  141.2714  155.6499 N.2     1  UNL1       -0.2478
     21 C         146.4651  142.3746  156.6411 C.2     1  UNL1        0.0946
     22 C         145.5104  142.1750  157.7807 C.2     1  UNL1        0.0046
     23 C         144.6962  140.9483  157.4938 C.3     1  UNL1        0.0888
     24 C         143.3989  139.9670  163.4450 C.3     1  UNL1        0.1533
     25 C         142.0955  139.2975  163.1241 C.3     1  UNL1        0.0599
     26 C         141.5526  138.2373  164.0357 C.3     1  UNL1        0.1443
     27 O         142.3131  137.8465  165.2683 O.3     1  UNL1       -0.3536
     28 C         143.6164  138.5160  165.5891 C.3     1  UNL1        0.1443
     29 C         144.1593  139.5763  164.6775 C.3     1  UNL1        0.0599
     30 C         145.7626  141.7984  163.2014 C.3     1  UNL1        0.1764
     31 S         144.5807  140.8827  163.3232 S.O2    1  UNL1       -0.0062
     32 O         145.0790  140.5514  162.4079 O.2     1  UNL1       -0.1727
     33 O         144.1711  141.5796  164.5868 O.2     1  UNL1       -0.1727
@<TRIPOS>BOND
     1    30    31    1
     2    31    32    2
     3    31    33    2
     4    31    24    1
     5    24     1    1
     6     1     2   ar
     7     2     3   ar
     8     3    15    1
     9    15    16    2
    10    16    17    1
    11    17    18    2
    12    18    19    1
    13    19    20    2
    14    20    21    1
    15    21    22    2
    16    22    23    1
    17     3     4   ar
    18     4     5   ar
    19     5     6   ar
    20     6     7    1
    21     7     8    1
    22     9     8    1
    23     9    10    1
    24    10    11    1
    25    11    12    1
    26    12    13    1
    27    13    14    1
    28    24    25    1
    29    25    26    1
    30    26    27    1
    31    27    28    1
    32    28    29    1
    33    29    24    1
    34     6     1   ar
    35    14     9    1
    36    23    15    1
    37    14     5    1
    38    23    19    1
