@<TRIPOS>MOLECULE
*****
 27 28 0 0 0
SMALL
GASTEIGER

@<TRIPOS>ATOM
      1 C         142.1228  141.1992  166.2664 C.3     1  UNL1        0.1237
      2 C         141.9520  141.9631  167.5460 C.ar    1  UNL1       -0.0093
      3 C         140.6490  142.6431  167.8453 C.ar    1  UNL1       -0.0035
      4 C         140.4782  143.4070  169.1249 C.ar    1  UNL1       -0.0003
      5 C         141.6106  143.4910  170.1051 C.ar    1  UNL1       -0.0000
      6 C         142.9136  142.8110  169.8058 C.ar    1  UNL1       -0.0003
      7 C         143.0843  142.0471  168.5262 C.ar    1  UNL1       -0.0035
      8 C         142.2727  142.4894  165.5162 C.ar    1  UNL1        0.0703
      9 C         143.6399  143.0384  165.2340 C.ar    1  UNL1        0.0155
     10 C         143.7898  144.3286  164.4838 C.ar    1  UNL1        0.0028
     11 C         142.5726  145.0698  164.0157 C.ar    1  UNL1        0.0207
     12 C         141.2055  144.5208  164.2979 C.ar    1  UNL1        0.0985
     13 N         141.0556  143.2306  165.0481 N.ar    1  UNL1       -0.2474
     14 C         141.9729  139.9090  167.0166 C.2     1  UNL1        0.2276
     15 N         143.0072  138.8324  166.8714 N.am    1  UNL1       -0.3283
     16 O         140.7886  139.6953  167.9121 O.2     1  UNL1       -0.2746
     17 H         143.7845  138.9726  166.2837 H       1  UNL1        0.1450
     18 H         142.9088  137.9856  167.3639 H       1  UNL1        0.1450
     19 C         142.2936  140.4353  164.9869 C.3     1  UNL1        0.0357
     20 C         141.1688  140.3698  163.9967 C.3     1  UNL1        0.0732
     21 N         139.9862  139.4859  164.2624 N.3     1  UNL1       -0.2752
     22 C         138.2539  141.3857  164.6360 C.3     1  UNL1        0.0173
     23 C         138.7911  140.0301  164.9874 C.3     1  UNL1        0.0575
     24 C         138.1332  139.2184  166.0637 C.3     1  UNL1        0.0173
     25 C         139.9988  138.0581  163.8030 C.3     1  UNL1        0.0575
     26 C         138.9698  137.5761  162.8239 C.3     1  UNL1        0.0173
     27 C         141.0405  137.1122  164.3229 C.3     1  UNL1        0.0173
@<TRIPOS>BOND
     1    22    23    1
     2    23    24    1
     3    23    21    1
     4    21    20    1
     5    20    19    1
     6    19     1    1
     7     1    14    1
     8    14    15   am
     9    14    16    2
    10     1     2    1
    11     2     3   ar
    12     3     4   ar
    13     4     5   ar
    14     5     6   ar
    15     6     7   ar
    16     1     8    1
    17     8     9   ar
    18     9    10   ar
    19    10    11   ar
    20    11    12   ar
    21    12    13   ar
    22    21    25    1
    23    25    26    1
    24    25    27    1
    25     7     2   ar
    26    13     8   ar
    27    15    17    1
    28    15    18    1
@<TRIPOS>MOLECULE
*****
 27 28 0 0 0
SMALL
GASTEIGER

@<TRIPOS>ATOM
      1 C         141.1587  141.6866  165.8619 C.3     1  UNL1        0.1237
      2 C         141.4438  142.1787  167.2499 C.ar    1  UNL1       -0.0093
      3 C         142.7682  141.8882  167.8914 C.ar    1  UNL1       -0.0035
      4 C         143.0532  142.3803  169.2794 C.ar    1  UNL1       -0.0003
      5 C         142.0138  143.1629  170.0259 C.ar    1  UNL1       -0.0000
      6 C         140.6894  143.4533  169.3844 C.ar    1  UNL1       -0.0003
      7 C         140.4044  142.9612  167.9965 C.ar    1  UNL1       -0.0035
      8 C         141.9900  142.7998  165.2965 C.ar    1  UNL1        0.0703
      9 C         143.4791  142.7901  165.4771 C.ar    1  UNL1        0.0155
     10 C         144.3105  143.9033  164.9118 C.ar    1  UNL1        0.0028
     11 C         143.6528  145.0262  164.1659 C.ar    1  UNL1        0.0207
     12 C         142.1637  145.0359  163.9853 C.ar    1  UNL1        0.0985
     13 N         141.3323  143.9227  164.5506 N.ar    1  UNL1       -0.2474
     14 C         140.3274  140.5733  166.4272 C.2     1  UNL1        0.2276
     15 N         138.9228  140.3659  165.9433 N.am    1  UNL1       -0.3283
     16 O         140.9007  139.6675  167.4765 O.2     1  UNL1       -0.2746
     17 H         138.5466  140.9604  165.2547 H       1  UNL1        0.1450
     18 H         138.3772  139.6353  166.3144 H       1  UNL1        0.1450
     19 C         140.8737  141.1945  164.4739 C.3     1  UNL1        0.0357
     20 C         141.9735  140.5910  163.6515 C.3     1  UNL1        0.0732
     21 N         142.4981  139.2262  163.9866 N.3     1  UNL1       -0.2752
     22 C         145.0523  139.6054  164.2728 C.3     1  UNL1        0.0173
     23 C         143.7494  139.0830  164.8013 C.3     1  UNL1        0.0575
     24 C         143.6977  138.4173  166.1445 C.3     1  UNL1        0.0173
     25 C         141.7714  138.0048  163.5071 C.3     1  UNL1        0.0575
     26 C         141.8310  137.6167  162.0594 C.3     1  UNL1        0.0173
     27 C         140.9851  137.1714  164.4752 C.3     1  UNL1        0.0173
@<TRIPOS>BOND
     1    22    23    1
     2    23    24    1
     3    23    21    1
     4    21    20    1
     5    20    19    1
     6    19     1    1
     7     1    14    1
     8    14    15   am
     9    14    16    2
    10     1     2    1
    11     2     3   ar
    12     3     4   ar
    13     4     5   ar
    14     5     6   ar
    15     6     7   ar
    16     1     8    1
    17     8     9   ar
    18     9    10   ar
    19    10    11   ar
    20    11    12   ar
    21    12    13   ar
    22    21    25    1
    23    25    26    1
    24    25    27    1
    25     7     2   ar
    26    13     8   ar
    27    15    17    1
    28    15    18    1
@<TRIPOS>MOLECULE
*****
 27 28 0 0 0
SMALL
GASTEIGER

@<TRIPOS>ATOM
      1 C         142.1139  141.1871  166.2407 C.3     1  UNL1        0.1237
      2 C         141.9436  141.9497  167.5212 C.ar    1  UNL1       -0.0093
      3 C         143.0822  142.0480  168.4927 C.ar    1  UNL1       -0.0035
      4 C         142.9118  142.8106  169.7730 C.ar    1  UNL1       -0.0003
      5 C         141.6029  143.4749  170.0819 C.ar    1  UNL1       -0.0000
      6 C         140.4643  143.3766  169.1103 C.ar    1  UNL1       -0.0003
      7 C         140.6346  142.6140  167.8300 C.ar    1  UNL1       -0.0035
      8 C         142.2471  142.4784  165.4894 C.ar    1  UNL1        0.0703
      9 C         143.6073  143.0405  165.1992 C.ar    1  UNL1        0.0155
     10 C         143.7405  144.3319  164.4479 C.ar    1  UNL1        0.0028
     11 C         142.5136  145.0612  163.9866 C.ar    1  UNL1        0.0207
     12 C         141.1535  144.4992  164.2766 C.ar    1  UNL1        0.0985
     13 N         141.0202  143.2078  165.0281 N.ar    1  UNL1       -0.2474
     14 C         141.9807  139.8957  166.9921 C.2     1  UNL1        0.2276
     15 N         143.0154  138.8222  166.8277 N.am    1  UNL1       -0.3283
     16 O         140.8128  139.6778  167.9079 O.2     1  UNL1       -0.2746
     17 H         143.7819  138.9651  166.2267 H       1  UNL1        0.1450
     18 H         142.9279  137.9746  167.3209 H       1  UNL1        0.1450
     19 C         142.2842  140.4245  164.9603 C.3     1  UNL1        0.0357
     20 C         141.1660  140.3761  163.9618 C.3     1  UNL1        0.0732
     21 N         139.9761  139.4971  164.2104 N.3     1  UNL1       -0.2752
     22 C         138.9118  137.6115  162.7745 C.3     1  UNL1        0.0173
     23 C         139.9764  138.0787  163.7223 C.3     1  UNL1        0.0575
     24 C         141.0414  137.1276  164.1820 C.3     1  UNL1        0.0173
     25 C         138.7860  140.0365  164.9470 C.3     1  UNL1        0.0575
     26 C         138.1620  139.2365  166.0518 C.3     1  UNL1        0.0173
     27 C         138.2199  141.3759  164.5788 C.3     1  UNL1        0.0173
@<TRIPOS>BOND
     1    22    23    1
     2    23    24    1
     3    23    21    1
     4    21    20    1
     5    20    19    1
     6    19     1    1
     7     1    14    1
     8    14    15   am
     9    14    16    2
    10     1     2    1
    11     2     3   ar
    12     3     4   ar
    13     4     5   ar
    14     5     6   ar
    15     6     7   ar
    16     1     8    1
    17     8     9   ar
    18     9    10   ar
    19    10    11   ar
    20    11    12   ar
    21    12    13   ar
    22    21    25    1
    23    25    26    1
    24    25    27    1
    25     7     2   ar
    26    13     8   ar
    27    15    17    1
    28    15    18    1
@<TRIPOS>MOLECULE
*****
 27 28 0 0 0
SMALL
GASTEIGER

@<TRIPOS>ATOM
      1 C         141.1644  141.6864  165.8821 C.3     1  UNL1        0.1237
      2 C         141.4572  142.1800  167.2680 C.ar    1  UNL1       -0.0093
      3 C         142.7873  141.8953  167.9001 C.ar    1  UNL1       -0.0035
      4 C         143.0801  142.3889  169.2859 C.ar    1  UNL1       -0.0003
      5 C         142.0427  143.1672  170.0397 C.ar    1  UNL1       -0.0000
      6 C         140.7125  143.4519  169.4076 C.ar    1  UNL1       -0.0003
      7 C         140.4198  142.9583  168.0217 C.ar    1  UNL1       -0.0035
      8 C         141.9966  142.7961  165.3111 C.ar    1  UNL1        0.0703
      9 C         143.4868  142.7801  165.4817 C.ar    1  UNL1        0.0155
     10 C         144.3190  143.8898  164.9107 C.ar    1  UNL1        0.0028
     11 C         143.6610  145.0155  164.1692 C.ar    1  UNL1        0.0207
     12 C         142.1709  145.0315  163.9986 C.ar    1  UNL1        0.0985
     13 N         141.3386  143.9218  164.5695 N.ar    1  UNL1       -0.2474
     14 C         140.3322  140.5768  166.4530 C.2     1  UNL1        0.2276
     15 N         138.9229  140.3765  165.9801 N.am    1  UNL1       -0.3283
     16 O         140.9093  139.6673  167.4970 O.2     1  UNL1       -0.2746
     17 H         138.5441  140.9734  165.2949 H       1  UNL1        0.1450
     18 H         138.3767  139.6482  166.3548 H       1  UNL1        0.1450
     19 C         140.8716  141.1929  164.4962 C.3     1  UNL1        0.0357
     20 C         141.9684  140.5955  163.6655 C.3     1  UNL1        0.0732
     21 N         142.4983  139.2307  163.9923 N.3     1  UNL1       -0.2752
     22 C         141.8446  137.6161  162.0647 C.3     1  UNL1        0.0173
     23 C         141.7729  138.0094  163.5104 C.3     1  UNL1        0.0575
     24 C         140.9756  137.1814  164.4743 C.3     1  UNL1        0.0173
     25 C         143.7534  139.0873  164.8009 C.3     1  UNL1        0.0575
     26 C         143.7092  138.4159  166.1415 C.3     1  UNL1        0.0173
     27 C         145.0528  139.6153  164.2690 C.3     1  UNL1        0.0173
@<TRIPOS>BOND
     1    22    23    1
     2    23    24    1
     3    23    21    1
     4    21    20    1
     5    20    19    1
     6    19     1    1
     7     1    14    1
     8    14    15   am
     9    14    16    2
    10     1     2    1
    11     2     3   ar
    12     3     4   ar
    13     4     5   ar
    14     5     6   ar
    15     6     7   ar
    16     1     8    1
    17     8     9   ar
    18     9    10   ar
    19    10    11   ar
    20    11    12   ar
    21    12    13   ar
    22    21    25    1
    23    25    26    1
    24    25    27    1
    25     7     2   ar
    26    13     8   ar
    27    15    17    1
    28    15    18    1
@<TRIPOS>MOLECULE
*****
 27 28 0 0 0
SMALL
GASTEIGER

@<TRIPOS>ATOM
      1 C         141.4138  142.1772  166.2467 C.3     1  UNL1        0.1237
      2 C         140.6960  141.8455  167.5214 C.ar    1  UNL1       -0.0093
      3 C         140.6851  142.8291  168.6538 C.ar    1  UNL1       -0.0035
      4 C         139.9673  142.4973  169.9284 C.ar    1  UNL1       -0.0003
      5 C         139.2604  141.1820  170.0706 C.ar    1  UNL1       -0.0000
      6 C         139.2713  140.1984  168.9382 C.ar    1  UNL1       -0.0003
      7 C         139.9891  140.5302  167.6636 C.ar    1  UNL1       -0.0035
      8 C         140.1170  142.6093  165.6289 C.ar    1  UNL1        0.0703
      9 C         139.7674  144.0665  165.5608 C.ar    1  UNL1        0.0155
     10 C         138.4707  144.4985  164.9430 C.ar    1  UNL1        0.0028
     11 C         137.5234  143.4735  164.3934 C.ar    1  UNL1        0.0207
     12 C         137.8729  142.0164  164.4616 C.ar    1  UNL1        0.0985
     13 N         139.1698  141.5843  165.0794 N.ar    1  UNL1       -0.2474
     14 C         142.7106  141.7452  166.8644 C.2     1  UNL1        0.2276
     15 N         142.9883  140.2874  167.0829 N.am    1  UNL1       -0.3283
     16 O         143.7297  142.7709  167.2638 O.2     1  UNL1       -0.2746
     17 H         142.3195  139.6142  166.8208 H       1  UNL1        0.1450
     18 H         143.8395  140.0038  167.4883 H       1  UNL1        0.1450
     19 C         142.1315  142.5089  164.9720 C.3     1  UNL1        0.0357
     20 C         141.9877  141.6153  163.7759 C.3     1  UNL1        0.0732
     21 N         142.8018  140.3593  163.6759 N.3     1  UNL1       -0.2752
     22 C         142.3625  138.1122  162.4482 C.3     1  UNL1        0.0173
     23 C         142.1183  139.0256  163.6126 C.3     1  UNL1        0.0575
     24 C         141.1904  138.6054  164.7138 C.3     1  UNL1        0.0173
     25 C         144.2993  140.4371  163.6392 C.3     1  UNL1        0.0575
     26 C         144.9757  141.4818  162.8021 C.3     1  UNL1        0.0173
     27 C         145.1204  139.4701  164.4397 C.3     1  UNL1        0.0173
@<TRIPOS>BOND
     1    22    23    1
     2    23    24    1
     3    23    21    1
     4    21    20    1
     5    20    19    1
     6    19     1    1
     7     1    14    1
     8    14    15   am
     9    14    16    2
    10     1     2    1
    11     2     3   ar
    12     3     4   ar
    13     4     5   ar
    14     5     6   ar
    15     6     7   ar
    16     1     8    1
    17     8     9   ar
    18     9    10   ar
    19    10    11   ar
    20    11    12   ar
    21    12    13   ar
    22    21    25    1
    23    25    26    1
    24    25    27    1
    25     7     2   ar
    26    13     8   ar
    27    15    17    1
    28    15    18    1
@<TRIPOS>MOLECULE
*****
 27 28 0 0 0
SMALL
GASTEIGER

@<TRIPOS>ATOM
      1 C         141.4258  142.1978  166.2656 C.3     1  UNL1        0.1237
      2 C         140.6991  141.8369  167.5273 C.ar    1  UNL1       -0.0093
      3 C         139.9878  140.5205  167.6327 C.ar    1  UNL1       -0.0035
      4 C         139.2611  140.1597  168.8943 C.ar    1  UNL1       -0.0003
      5 C         139.2457  141.1152  170.0505 C.ar    1  UNL1       -0.0000
      6 C         139.9571  142.4315  169.9451 C.ar    1  UNL1       -0.0003
      7 C         140.6837  142.7924  168.6835 C.ar    1  UNL1       -0.0035
      8 C         140.1278  142.6077  165.6353 C.ar    1  UNL1        0.0703
      9 C         139.7450  144.0570  165.5813 C.ar    1  UNL1        0.0155
     10 C         138.4470  144.4668  164.9509 C.ar    1  UNL1        0.0028
     11 C         137.5319  143.4274  164.3747 C.ar    1  UNL1        0.0207
     12 C         137.9147  141.9781  164.4287 C.ar    1  UNL1        0.0985
     13 N         139.2127  141.5682  165.0591 N.ar    1  UNL1       -0.2474
     14 C         142.7237  141.7880  166.8960 C.2     1  UNL1        0.2276
     15 N         143.0026  140.3388  167.1642 N.am    1  UNL1       -0.3283
     16 O         143.7429  142.8274  167.2580 O.2     1  UNL1       -0.2746
     17 H         142.3337  139.6566  166.9266 H       1  UNL1        0.1450
     18 H         143.8545  140.0698  167.5779 H       1  UNL1        0.1450
     19 C         142.1524  142.5587  165.0040 C.3     1  UNL1        0.0357
     20 C         142.0531  141.6689  163.8005 C.3     1  UNL1        0.0732
     21 N         142.8587  140.4053  163.7335 N.3     1  UNL1       -0.2752
     22 C         145.0780  141.5844  163.0744 C.3     1  UNL1        0.0173
     23 C         144.3569  140.4682  163.7702 C.3     1  UNL1        0.0575
     24 C         145.1341  139.4150  164.5029 C.3     1  UNL1        0.0173
     25 C         142.1660  139.0789  163.6297 C.3     1  UNL1        0.0575
     26 C         142.3283  138.2427  162.3951 C.3     1  UNL1        0.0173
     27 C         141.3111  138.5888  164.7606 C.3     1  UNL1        0.0173
@<TRIPOS>BOND
     1    22    23    1
     2    23    24    1
     3    23    21    1
     4    21    20    1
     5    20    19    1
     6    19     1    1
     7     1    14    1
     8    14    15   am
     9    14    16    2
    10     1     2    1
    11     2     3   ar
    12     3     4   ar
    13     4     5   ar
    14     5     6   ar
    15     6     7   ar
    16     1     8    1
    17     8     9   ar
    18     9    10   ar
    19    10    11   ar
    20    11    12   ar
    21    12    13   ar
    22    21    25    1
    23    25    26    1
    24    25    27    1
    25     7     2   ar
    26    13     8   ar
    27    15    17    1
    28    15    18    1
@<TRIPOS>MOLECULE
*****
 27 28 0 0 0
SMALL
GASTEIGER

@<TRIPOS>ATOM
      1 C         140.8914  141.0630  165.7962 C.3     1  UNL1        0.1237
      2 C         140.4665  141.2572  167.2217 C.ar    1  UNL1       -0.0093
      3 C         140.8372  142.5149  167.9500 C.ar    1  UNL1       -0.0035
      4 C         140.4123  142.7091  169.3754 C.ar    1  UNL1       -0.0003
      5 C         139.6167  141.6455  170.0724 C.ar    1  UNL1       -0.0000
      6 C         139.2460  140.3877  169.3440 C.ar    1  UNL1       -0.0003
      7 C         139.6709  140.1936  167.9186 C.ar    1  UNL1       -0.0035
      8 C         139.8947  142.0950  165.3586 C.ar    1  UNL1        0.0703
      9 C         138.5593  141.6689  164.8245 C.ar    1  UNL1        0.0155
     10 C         137.5626  142.7009  164.3869 C.ar    1  UNL1        0.0028
     11 C         137.9013  144.1590  164.4832 C.ar    1  UNL1        0.0207
     12 C         139.2366  144.5851  165.0173 C.ar    1  UNL1        0.0985
     13 N         140.2334  143.5530  165.4550 N.ar    1  UNL1       -0.2474
     14 C         141.8881  140.0310  166.2338 C.2     1  UNL1        0.2276
     15 N         141.7858  138.6248  165.7217 N.am    1  UNL1       -0.3283
     16 O         142.9871  140.4051  167.1837 O.2     1  UNL1       -0.2746
     17 H         141.0644  138.3793  165.0983 H       1  UNL1        0.1450
     18 H         142.4399  137.9475  166.0089 H       1  UNL1        0.1450
     19 C         141.3162  140.8688  164.3708 C.3     1  UNL1        0.0357
     20 C         142.6756  141.3201  163.9253 C.3     1  UNL1        0.0732
     21 N         142.8706  142.7143  163.4073 N.3     1  UNL1       -0.2752
     22 C         143.5533  145.1817  163.8499 C.3     1  UNL1        0.0173
     23 C         143.5723  143.7366  164.2514 C.3     1  UNL1        0.0575
     24 C         144.2930  143.3137  165.4972 C.3     1  UNL1        0.0173
     25 C         142.3639  143.0862  162.0454 C.3     1  UNL1        0.0575
     26 C         143.2856  143.0365  160.8630 C.3     1  UNL1        0.0173
     27 C         140.9356  143.5077  161.8658 C.3     1  UNL1        0.0173
@<TRIPOS>BOND
     1    22    23    1
     2    23    24    1
     3    23    21    1
     4    21    20    1
     5    20    19    1
     6    19     1    1
     7     1    14    1
     8    14    15   am
     9    14    16    2
    10     1     2    1
    11     2     3   ar
    12     3     4   ar
    13     4     5   ar
    14     5     6   ar
    15     6     7   ar
    16     1     8    1
    17     8     9   ar
    18     9    10   ar
    19    10    11   ar
    20    11    12   ar
    21    12    13   ar
    22    21    25    1
    23    25    26    1
    24    25    27    1
    25     7     2   ar
    26    13     8   ar
    27    15    17    1
    28    15    18    1
@<TRIPOS>MOLECULE
*****
 27 28 0 0 0
SMALL
GASTEIGER

@<TRIPOS>ATOM
      1 C         140.8896  141.0549  165.7885 C.3     1  UNL1        0.1237
      2 C         140.4664  141.2485  167.2145 C.ar    1  UNL1       -0.0093
      3 C         139.6721  140.1845  167.9122 C.ar    1  UNL1       -0.0035
      4 C         139.2490  140.3782  169.3382 C.ar    1  UNL1       -0.0003
      5 C         139.6203  141.6359  170.0665 C.ar    1  UNL1       -0.0000
      6 C         140.4147  142.6998  169.3688 C.ar    1  UNL1       -0.0003
      7 C         140.8377  142.5062  167.9428 C.ar    1  UNL1       -0.0035
      8 C         139.8944  142.0891  165.3528 C.ar    1  UNL1        0.0703
      9 C         138.5593  141.6659  164.8155 C.ar    1  UNL1        0.0155
     10 C         137.5641  142.7001  164.3798 C.ar    1  UNL1        0.0028
     11 C         137.9039  144.1576  164.4814 C.ar    1  UNL1        0.0207
     12 C         139.2388  144.5808  165.0186 C.ar    1  UNL1        0.0985
     13 N         140.2341  143.5466  165.4544 N.ar    1  UNL1       -0.2474
     14 C         141.8848  140.0206  166.2242 C.2     1  UNL1        0.2276
     15 N         141.7775  138.6144  165.7132 N.am    1  UNL1       -0.3283
     16 O         142.9873  140.3926  167.1709 O.2     1  UNL1       -0.2746
     17 H         141.0540  138.3703  165.0919 H       1  UNL1        0.1450
     18 H         142.4308  137.9356  165.9992 H       1  UNL1        0.1450
     19 C         141.3127  140.8613  164.3625 C.3     1  UNL1        0.0357
     20 C         142.6715  141.3127  163.9154 C.3     1  UNL1        0.0732
     21 N         142.8660  142.7073  163.3986 N.3     1  UNL1       -0.2752
     22 C         140.9336  143.5191  161.8635 C.3     1  UNL1        0.0173
     23 C         142.3574  143.0806  162.0377 C.3     1  UNL1        0.0575
     24 C         143.2726  143.0153  160.8510 C.3     1  UNL1        0.0173
     25 C         143.5692  143.7287  164.2425 C.3     1  UNL1        0.0575
     26 C         143.5580  145.1728  163.8371 C.3     1  UNL1        0.0173
     27 C         144.2837  143.3059  165.4918 C.3     1  UNL1        0.0173
@<TRIPOS>BOND
     1    22    23    1
     2    23    24    1
     3    23    21    1
     4    21    20    1
     5    20    19    1
     6    19     1    1
     7     1    14    1
     8    14    15   am
     9    14    16    2
    10     1     2    1
    11     2     3   ar
    12     3     4   ar
    13     4     5   ar
    14     5     6   ar
    15     6     7   ar
    16     1     8    1
    17     8     9   ar
    18     9    10   ar
    19    10    11   ar
    20    11    12   ar
    21    12    13   ar
    22    21    25    1
    23    25    26    1
    24    25    27    1
    25     7     2   ar
    26    13     8   ar
    27    15    17    1
    28    15    18    1
@<TRIPOS>MOLECULE
*****
 27 28 0 0 0
SMALL
GASTEIGER

@<TRIPOS>ATOM
      1 C         142.1586  140.7865  167.1447 C.3     1  UNL1        0.1237
      2 C         141.9319  141.8074  168.2201 C.ar    1  UNL1       -0.0093
      3 C         142.9997  142.0726  169.2396 C.ar    1  UNL1       -0.0035
      4 C         142.7730  143.0934  170.3149 C.ar    1  UNL1       -0.0003
      5 C         141.4785  143.8492  170.3707 C.ar    1  UNL1       -0.0000
      6 C         140.4107  143.5840  169.3512 C.ar    1  UNL1       -0.0003
      7 C         140.6374  142.5632  168.2759 C.ar    1  UNL1       -0.0035
      8 C         142.3061  141.8845  166.1334 C.ar    1  UNL1        0.0703
      9 C         143.6614  142.4560  165.8391 C.ar    1  UNL1        0.0155
     10 C         143.8089  143.5540  164.8279 C.ar    1  UNL1        0.0028
     11 C         142.6011  144.0806  164.1110 C.ar    1  UNL1        0.0207
     12 C         141.2458  143.5091  164.4053 C.ar    1  UNL1        0.0985
     13 N         141.0983  142.4111  165.4165 N.ar    1  UNL1       -0.2474
     14 C         142.0111  139.6885  168.1559 C.2     1  UNL1        0.2276
     15 N         140.7300  139.5419  168.9223 N.am    1  UNL1       -0.3283
     16 O         143.1447  138.7371  168.4007 O.2     1  UNL1       -0.2746
     17 H         139.9860  140.1663  168.7617 H       1  UNL1        0.1450
     18 H         140.6333  138.8212  169.5860 H       1  UNL1        0.1450
     19 C         142.3852  139.7657  166.0693 C.3     1  UNL1        0.0357
     20 C         141.2397  138.9369  165.5684 C.3     1  UNL1        0.0732
     21 N         140.7970  139.0547  164.1400 N.3     1  UNL1       -0.2752
     22 C         138.3761  139.9836  164.3026 C.3     1  UNL1        0.0173
     23 C         139.3407  138.9529  163.7954 C.3     1  UNL1        0.0575
     24 C         138.8489  137.8204  162.9435 C.3     1  UNL1        0.0173
     25 C         141.8106  139.2741  163.0563 C.3     1  UNL1        0.0575
     26 C         141.9000  140.6056  162.3715 C.3     1  UNL1        0.0173
     27 C         142.7348  138.1620  162.6575 C.3     1  UNL1        0.0173
@<TRIPOS>BOND
     1    22    23    1
     2    23    24    1
     3    23    21    1
     4    21    20    1
     5    20    19    1
     6    19     1    1
     7     1    14    1
     8    14    15   am
     9    14    16    2
    10     1     2    1
    11     2     3   ar
    12     3     4   ar
    13     4     5   ar
    14     5     6   ar
    15     6     7   ar
    16     1     8    1
    17     8     9   ar
    18     9    10   ar
    19    10    11   ar
    20    11    12   ar
    21    12    13   ar
    22    21    25    1
    23    25    26    1
    24    25    27    1
    25     7     2   ar
    26    13     8   ar
    27    15    17    1
    28    15    18    1
