@<TRIPOS>MOLECULE
*****
 35 38 0 0 0
SMALL
GASTEIGER

@<TRIPOS>ATOM
      1 C         143.9669  140.4503  165.1996 C.3     1  UNL1        0.0188
      2 C         143.3405  141.7312  165.6651 C.3     1  UNL1        0.0188
      3 C         142.2363  141.7008  166.6799 C.3     1  UNL1        0.0724
      4 N         141.7586  140.3893  167.2292 N.3     1  UNL1       -0.2704
      5 C         142.3850  139.1083  166.7637 C.3     1  UNL1        0.0724
      6 C         143.4891  139.1388  165.7489 C.3     1  UNL1        0.0188
      7 C         140.6544  140.3588  168.2441 C.3     1  UNL1        0.0815
      8 C         141.6157  139.8450  169.2745 C.3     1  UNL1        0.0221
      9 C         139.5503  140.3282  169.2589 C.2     1  UNL1        0.0635
     10 O         138.8025  139.7137  169.4375 O.co2   1  UNL1       -0.5478
     11 O         139.4468  141.4151  170.2876 O.co2   1  UNL1       -0.5478
     12 C         139.6931  140.8725  167.2137 C.3     1  UNL1        0.0463
     13 C         139.3629  140.0363  166.0129 C.ar    1  UNL1       -0.0204
     14 C         139.4590  140.6277  164.6377 C.ar    1  UNL1       -0.0019
     15 C         139.1289  139.7914  163.4370 C.ar    1  UNL1        0.0293
     16 C         138.7027  138.3638  163.6115 C.ar    1  UNL1        0.1401
     17 F         138.3726  137.5276  162.4108 F       1  UNL1       -0.2042
     18 C         138.6067  137.7725  164.9866 C.ar    1  UNL1        0.0293
     19 C         138.9368  138.6087  166.1874 C.ar    1  UNL1       -0.0019
     20 C         145.0711  140.4808  164.1847 C.3     1  UNL1        0.0721
     21 C         144.1471  141.4205  159.8820 C.3     1  UNL1        0.1687
     22 C         144.6998  142.4869  160.7807 C.3     1  UNL1        0.0609
     23 C         145.0078  142.1736  162.2149 C.3     1  UNL1        0.0758
     24 N         144.7631  140.7940  162.7505 N.3     1  UNL1       -0.2724
     25 C         144.2105  139.7277  161.8520 C.3     1  UNL1        0.0758
     26 C         143.9025  140.0409  160.4177 C.3     1  UNL1        0.0609
     27 O         143.8392  141.7338  158.4478 O.3     1  UNL1       -0.4794
     28 C         143.7086  139.6340  156.3091 C.3     1  UNL1        0.0343
     29 C         144.8561  140.5995  156.3433 C.ar    1  UNL1        0.0143
     30 C         145.9383  140.5151  155.3081 C.ar    1  UNL1        0.0284
     31 C         147.0858  141.4805  155.3422 C.ar    1  UNL1        0.1400
     32 F         148.1681  141.3961  154.3069 F       1  UNL1       -0.2042
     33 C         147.1511  142.5304  156.4115 C.ar    1  UNL1        0.0327
     34 C         146.0689  142.6148  157.4467 C.ar    1  UNL1        0.0389
     35 C         144.9214  141.6493  157.4126 C.ar    1  UNL1        0.1345
@<TRIPOS>UNITY_ATOM_ATTR
10 1
charge -1
@<TRIPOS>BOND
     1    28    29    1
     2    29    30   ar
     3    30    31   ar
     4    31    32    1
     5    31    33   ar
     6    33    34   ar
     7    34    35   ar
     8    35    27    1
     9    27    21    1
    10    21    22    1
    11    22    23    1
    12    23    24    1
    13    24    20    1
    14    20     1    1
    15     1     2    1
    16     2     3    1
    17     3     4    1
    18     4     7    1
    19     7     8    1
    20     7    12    1
    21    12    13    1
    22    13    14   ar
    23    14    15   ar
    24    15    16   ar
    25    16    17    1
    26    16    18   ar
    27    18    19   ar
    28     7     9    1
    29     9    10   ar
    30     9    11   ar
    31     4     5    1
    32     5     6    1
    33    24    25    1
    34    25    26    1
    35    35    29   ar
    36    26    21    1
    37     6     1    1
    38    19    13   ar
@<TRIPOS>MOLECULE
*****
 35 38 0 0 0
SMALL
GASTEIGER

@<TRIPOS>ATOM
      1 C         138.6663  140.9757  162.2147 C.3     1  UNL1        0.0188
      2 C         137.9827  142.3109  162.2207 C.3     1  UNL1        0.0188
      3 C         138.4672  143.4056  161.3169 C.3     1  UNL1        0.0724
      4 N         139.6353  143.1651  160.4071 N.3     1  UNL1       -0.2704
      5 C         140.3189  141.8300  160.4011 C.3     1  UNL1        0.0724
      6 C         139.8344  140.7353  161.3049 C.3     1  UNL1        0.0188
      7 C         140.1198  144.2599  159.5033 C.3     1  UNL1        0.0815
      8 C         139.8756  143.3833  158.3108 C.3     1  UNL1        0.0221
      9 C         140.6043  145.3545  158.5994 C.2     1  UNL1        0.0635
     10 O         140.1564  146.0566  158.0749 O.co2   1  UNL1       -0.5478
     11 O         142.0737  145.5291  158.3538 O.co2   1  UNL1       -0.5478
     12 C         140.3640  145.1364  160.6957 C.3     1  UNL1        0.0463
     13 C         141.4326  144.7765  161.6849 C.ar    1  UNL1       -0.0204
     14 C         142.6695  144.0626  161.2262 C.ar    1  UNL1       -0.0019
     15 C         143.7381  143.7027  162.2154 C.ar    1  UNL1        0.0293
     16 C         143.5698  144.0567  163.6633 C.ar    1  UNL1        0.1401
     17 F         144.6384  143.6967  164.6525 F       1  UNL1       -0.2042
     18 C         142.3329  144.7705  164.1220 C.ar    1  UNL1        0.0293
     19 C         141.2643  145.1304  163.1328 C.ar    1  UNL1       -0.0019
     20 C         138.1818  139.8810  163.1186 C.3     1  UNL1        0.0721
     21 C         139.3052  139.8984  167.4761 C.3     1  UNL1        0.1687
     22 C         139.8712  140.9351  166.5514 C.3     1  UNL1        0.0609
     23 C         139.4968  140.9293  165.0990 C.3     1  UNL1        0.0758
     24 N         138.5563  139.8868  164.5710 N.3     1  UNL1       -0.2724
     25 C         137.9902  138.8502  165.4956 C.3     1  UNL1        0.0758
     26 C         138.3647  138.8559  166.9482 C.3     1  UNL1        0.0609
     27 O         139.6796  139.9042  168.9285 O.3     1  UNL1       -0.4794
     28 C         142.5422  139.1117  169.3502 C.3     1  UNL1        0.0343
     29 C         142.0989  140.5119  169.6552 C.ar    1  UNL1        0.0143
     30 C         143.0869  141.5158  170.1709 C.ar    1  UNL1        0.0284
     31 C         142.6436  142.9160  170.4759 C.ar    1  UNL1        0.1400
     32 F         143.6316  143.9199  170.9918 F       1  UNL1       -0.2042
     33 C         141.2123  143.3122  170.2651 C.ar    1  UNL1        0.0327
     34 C         140.2244  142.3083  169.7493 C.ar    1  UNL1        0.0389
     35 C         140.6677  140.9082  169.4444 C.ar    1  UNL1        0.1345
@<TRIPOS>UNITY_ATOM_ATTR
10 1
charge -1
@<TRIPOS>BOND
     1    28    29    1
     2    29    30   ar
     3    30    31   ar
     4    31    32    1
     5    31    33   ar
     6    33    34   ar
     7    34    35   ar
     8    35    27    1
     9    27    21    1
    10    21    22    1
    11    22    23    1
    12    23    24    1
    13    24    20    1
    14    20     1    1
    15     1     2    1
    16     2     3    1
    17     3     4    1
    18     4     7    1
    19     7     8    1
    20     7    12    1
    21    12    13    1
    22    13    14   ar
    23    14    15   ar
    24    15    16   ar
    25    16    17    1
    26    16    18   ar
    27    18    19   ar
    28     7     9    1
    29     9    10   ar
    30     9    11   ar
    31     4     5    1
    32     5     6    1
    33    24    25    1
    34    25    26    1
    35    35    29   ar
    36    26    21    1
    37     6     1    1
    38    19    13   ar
@<TRIPOS>MOLECULE
*****
 35 38 0 0 0
SMALL
GASTEIGER

@<TRIPOS>ATOM
      1 C         142.7767  143.0639  165.1650 C.3     1  UNL1        0.0188
      2 C         143.5518  142.5634  166.3477 C.3     1  UNL1        0.0188
      3 C         142.8351  142.1969  167.6134 C.3     1  UNL1        0.0724
      4 N         141.3434  142.3309  167.6964 N.3     1  UNL1       -0.2704
      5 C         140.5684  142.8313  166.5136 C.3     1  UNL1        0.0724
      6 C         141.2851  143.1978  165.2479 C.3     1  UNL1        0.0188
      7 C         140.6267  141.9644  168.9621 C.3     1  UNL1        0.0815
      8 C         140.3208  143.4121  169.2080 C.3     1  UNL1        0.0221
      9 C         139.9100  141.5979  170.2278 C.2     1  UNL1        0.0635
     10 O         138.9813  141.3511  170.4408 O.co2   1  UNL1       -0.5478
     11 O         140.6561  141.5611  171.5285 O.co2   1  UNL1       -0.5478
     12 C         140.9326  140.5167  168.7162 C.3     1  UNL1        0.0463
     13 C         140.3242  139.8107  167.5409 C.ar    1  UNL1       -0.0204
     14 C         141.2011  139.3030  166.4348 C.ar    1  UNL1       -0.0019
     15 C         140.5927  138.5969  165.2594 C.ar    1  UNL1        0.0293
     16 C         139.1074  138.3986  165.1902 C.ar    1  UNL1        0.1401
     17 F         138.4990  137.6926  164.0149 F       1  UNL1       -0.2042
     18 C         138.2306  138.9063  166.2963 C.ar    1  UNL1        0.0293
     19 C         138.8390  139.6123  167.4716 C.ar    1  UNL1       -0.0019
     20 C         143.4935  143.4304  163.8992 C.3     1  UNL1        0.0721
     21 C         143.9518  140.3914  160.6122 C.3     1  UNL1        0.1687
     22 C         144.0597  139.9666  162.0468 C.3     1  UNL1        0.0609
     23 C         143.9069  140.9796  163.1425 C.3     1  UNL1        0.0758
     24 N         143.6463  142.4174  162.8036 N.3     1  UNL1       -0.2724
     25 C         143.5384  142.8422  161.3691 C.3     1  UNL1        0.0758
     26 C         143.6912  141.8292  160.2734 C.3     1  UNL1        0.0609
     27 O         144.1046  139.3784  159.5166 O.3     1  UNL1       -0.4794
     28 C         144.4362  140.3290  156.6905 C.3     1  UNL1        0.0343
     29 C         143.1653  139.6514  157.1097 C.ar    1  UNL1        0.0143
     30 C         142.0602  139.4491  156.1159 C.ar    1  UNL1        0.0284
     31 C         140.7893  138.7716  156.5350 C.ar    1  UNL1        0.1400
     32 F         139.6841  138.5693  155.5411 F       1  UNL1       -0.2042
     33 C         140.6235  138.2963  157.9480 C.ar    1  UNL1        0.0327
     34 C         141.7286  138.4986  158.9418 C.ar    1  UNL1        0.0389
     35 C         142.9995  139.1761  158.5227 C.ar    1  UNL1        0.1345
@<TRIPOS>UNITY_ATOM_ATTR
10 1
charge -1
@<TRIPOS>BOND
     1    28    29    1
     2    29    30   ar
     3    30    31   ar
     4    31    32    1
     5    31    33   ar
     6    33    34   ar
     7    34    35   ar
     8    35    27    1
     9    27    21    1
    10    21    22    1
    11    22    23    1
    12    23    24    1
    13    24    20    1
    14    20     1    1
    15     1     2    1
    16     2     3    1
    17     3     4    1
    18     4     7    1
    19     7     8    1
    20     7    12    1
    21    12    13    1
    22    13    14   ar
    23    14    15   ar
    24    15    16   ar
    25    16    17    1
    26    16    18   ar
    27    18    19   ar
    28     7     9    1
    29     9    10   ar
    30     9    11   ar
    31     4     5    1
    32     5     6    1
    33    24    25    1
    34    25    26    1
    35    35    29   ar
    36    26    21    1
    37     6     1    1
    38    19    13   ar
@<TRIPOS>MOLECULE
*****
 35 38 0 0 0
SMALL
GASTEIGER

@<TRIPOS>ATOM
      1 C         138.8904  142.6768  164.9859 C.3     1  UNL1        0.0188
      2 C         138.7552  141.1962  165.1852 C.3     1  UNL1        0.0188
      3 C         139.3608  140.5435  166.3923 C.3     1  UNL1        0.0724
      4 N         140.1017  141.3714  167.4001 N.3     1  UNL1       -0.2704
      5 C         140.2369  142.8519  167.2008 C.3     1  UNL1        0.0724
      6 C         139.6313  143.5046  165.9937 C.3     1  UNL1        0.0188
      7 C         140.7074  140.7187  168.6073 C.3     1  UNL1        0.0815
      8 C         139.3513  140.2317  169.0243 C.3     1  UNL1        0.0221
      9 C         141.3130  140.0660  169.8144 C.2     1  UNL1        0.0635
     10 O         141.1950  139.1916  170.2504 O.co2   1  UNL1       -0.5478
     11 O         142.3389  140.7983  170.6276 O.co2   1  UNL1       -0.5478
     12 C         142.0634  141.2057  168.1903 C.3     1  UNL1        0.0463
     13 C         142.7459  140.5973  167.0011 C.ar    1  UNL1       -0.0204
     14 C         143.2562  141.4766  165.8981 C.ar    1  UNL1       -0.0019
     15 C         143.9386  140.8682  164.7089 C.ar    1  UNL1        0.0293
     16 C         144.1107  139.3806  164.6228 C.ar    1  UNL1        0.1401
     17 F         144.7932  138.7722  163.4336 F       1  UNL1       -0.2042
     18 C         143.6004  138.5014  165.7257 C.ar    1  UNL1        0.0293
     19 C         142.9180  139.1098  166.9149 C.ar    1  UNL1       -0.0019
     20 C         138.2847  143.3295  163.7787 C.3     1  UNL1        0.0721
     21 C         140.9386  144.9180  160.5102 C.3     1  UNL1        0.1687
     22 C         140.0854  145.8594  161.3076 C.3     1  UNL1        0.0609
     23 C         139.2008  145.3299  162.3971 C.3     1  UNL1        0.0758
     24 N         139.1693  143.8590  162.6892 N.3     1  UNL1       -0.2724
     25 C         140.0225  142.9175  161.8919 C.3     1  UNL1        0.0758
     26 C         140.9071  143.4470  160.8023 C.3     1  UNL1        0.0609
     27 O         141.8232  145.4475  159.4207 O.3     1  UNL1       -0.4794
     28 C         143.1466  143.4510  157.6143 C.3     1  UNL1        0.0343
     29 C         142.0584  144.3366  157.0838 C.ar    1  UNL1        0.0143
     30 C         141.6318  144.2239  155.6502 C.ar    1  UNL1        0.0284
     31 C         140.5436  145.1095  155.1197 C.ar    1  UNL1        0.1400
     32 F         140.1170  144.9968  153.6860 F       1  UNL1       -0.2042
     33 C         139.8819  146.1077  156.0228 C.ar    1  UNL1        0.0327
     34 C         140.3084  146.2204  157.4564 C.ar    1  UNL1        0.0389
     35 C         141.3967  145.3348  157.9869 C.ar    1  UNL1        0.1345
@<TRIPOS>UNITY_ATOM_ATTR
10 1
charge -1
@<TRIPOS>BOND
     1    28    29    1
     2    29    30   ar
     3    30    31   ar
     4    31    32    1
     5    31    33   ar
     6    33    34   ar
     7    34    35   ar
     8    35    27    1
     9    27    21    1
    10    21    22    1
    11    22    23    1
    12    23    24    1
    13    24    20    1
    14    20     1    1
    15     1     2    1
    16     2     3    1
    17     3     4    1
    18     4     7    1
    19     7     8    1
    20     7    12    1
    21    12    13    1
    22    13    14   ar
    23    14    15   ar
    24    15    16   ar
    25    16    17    1
    26    16    18   ar
    27    18    19   ar
    28     7     9    1
    29     9    10   ar
    30     9    11   ar
    31     4     5    1
    32     5     6    1
    33    24    25    1
    34    25    26    1
    35    35    29   ar
    36    26    21    1
    37     6     1    1
    38    19    13   ar
@<TRIPOS>MOLECULE
*****
 35 38 0 0 0
SMALL
GASTEIGER

@<TRIPOS>ATOM
      1 C         142.4573  143.1260  165.1293 C.3     1  UNL1        0.0188
      2 C         140.9854  143.2571  165.3869 C.3     1  UNL1        0.0188
      3 C         140.4195  142.8659  166.7197 C.3     1  UNL1        0.0724
      4 N         141.3255  142.3435  167.7950 N.3     1  UNL1       -0.2704
      5 C         142.7973  142.2123  167.5374 C.3     1  UNL1        0.0724
      6 C         143.3633  142.6036  166.2046 C.3     1  UNL1        0.0188
      7 C         140.7596  141.9522  169.1280 C.3     1  UNL1        0.0815
      8 C         140.4454  143.3902  169.4167 C.3     1  UNL1        0.0221
      9 C         140.1937  141.5610  170.4609 C.2     1  UNL1        0.0635
     10 O         139.5094  140.9155  170.7504 O.co2   1  UNL1       -0.5478
     11 O         140.6930  142.2226  171.7111 O.co2   1  UNL1       -0.5478
     12 C         141.0737  140.5142  168.8393 C.3     1  UNL1        0.0463
     13 C         140.4254  139.8238  167.6761 C.ar    1  UNL1       -0.0204
     14 C         138.9382  139.6290  167.6534 C.ar    1  UNL1       -0.0019
     15 C         138.2900  138.9386  166.4902 C.ar    1  UNL1        0.0293
     16 C         139.1289  138.4429  165.3497 C.ar    1  UNL1        0.1401
     17 F         138.4806  137.7525  164.1864 F       1  UNL1       -0.2042
     18 C         140.6160  138.6377  165.3724 C.ar    1  UNL1        0.0293
     19 C         141.2642  139.3281  166.5356 C.ar    1  UNL1       -0.0019
     20 C         143.0232  143.5172  163.7963 C.3     1  UNL1        0.0721
     21 C         140.3164  143.8706  160.2188 C.3     1  UNL1        0.1687
     22 C         140.9401  142.5497  160.5599 C.3     1  UNL1        0.0609
     23 C         141.8424  142.4319  161.7524 C.3     1  UNL1        0.0758
     24 N         142.1210  143.6350  162.6038 N.3     1  UNL1       -0.2724
     25 C         141.4973  144.9559  162.2628 C.3     1  UNL1        0.0758
     26 C         140.5950  145.0737  161.0703 C.3     1  UNL1        0.0609
     27 O         139.4142  143.9884  159.0263 O.3     1  UNL1       -0.4794
     28 C         140.0016  141.9500  156.9050 C.3     1  UNL1        0.0343
     29 C         140.2661  143.4030  156.6427 C.ar    1  UNL1        0.0143
     30 C         140.8244  143.8368  155.3198 C.ar    1  UNL1        0.0284
     31 C         141.0889  145.2898  155.0575 C.ar    1  UNL1        0.1400
     32 F         141.6472  145.7236  153.7345 F       1  UNL1       -0.2042
     33 C         140.7952  146.3090  156.1182 C.ar    1  UNL1        0.0327
     34 C         140.2370  145.8752  157.4411 C.ar    1  UNL1        0.0389
     35 C         139.9724  144.4222  157.7034 C.ar    1  UNL1        0.1345
@<TRIPOS>UNITY_ATOM_ATTR
10 1
charge -1
@<TRIPOS>BOND
     1    28    29    1
     2    29    30   ar
     3    30    31   ar
     4    31    32    1
     5    31    33   ar
     6    33    34   ar
     7    34    35   ar
     8    35    27    1
     9    27    21    1
    10    21    22    1
    11    22    23    1
    12    23    24    1
    13    24    20    1
    14    20     1    1
    15     1     2    1
    16     2     3    1
    17     3     4    1
    18     4     7    1
    19     7     8    1
    20     7    12    1
    21    12    13    1
    22    13    14   ar
    23    14    15   ar
    24    15    16   ar
    25    16    17    1
    26    16    18   ar
    27    18    19   ar
    28     7     9    1
    29     9    10   ar
    30     9    11   ar
    31     4     5    1
    32     5     6    1
    33    24    25    1
    34    25    26    1
    35    35    29   ar
    36    26    21    1
    37     6     1    1
    38    19    13   ar
@<TRIPOS>MOLECULE
*****
 35 38 0 0 0
SMALL
GASTEIGER

@<TRIPOS>ATOM
      1 C         142.7252  143.3279  164.9004 C.3     1  UNL1        0.0188
      2 C         141.2336  143.4123  165.0347 C.3     1  UNL1        0.0188
      3 C         140.5516  142.7997  166.2218 C.3     1  UNL1        0.0724
      4 N         141.3611  142.1026  167.2747 N.3     1  UNL1       -0.2704
      5 C         142.8527  142.0182  167.1405 C.3     1  UNL1        0.0724
      6 C         143.5348  142.6308  165.9533 C.3     1  UNL1        0.0188
      7 C         140.6791  141.4899  168.4620 C.3     1  UNL1        0.0815
      8 C         140.2563  142.8533  168.9227 C.3     1  UNL1        0.0221
      9 C         139.9970  140.8772  169.6492 C.2     1  UNL1        0.0635
     10 O         139.9541  139.9658  170.0181 O.co2   1  UNL1       -0.5478
     11 O         139.1643  141.7310  170.5589 O.co2   1  UNL1       -0.5478
     12 C         141.1018  140.1265  168.0013 C.3     1  UNL1        0.0463
     13 C         140.4426  139.5000  166.8084 C.ar    1  UNL1       -0.0204
     14 C         141.2798  138.9357  165.6990 C.ar    1  UNL1       -0.0019
     15 C         140.6205  138.3092  164.5061 C.ar    1  UNL1        0.0293
     16 C         139.1241  138.2470  164.4227 C.ar    1  UNL1        0.1401
     17 F         138.4648  137.6205  163.2299 F       1  UNL1       -0.2042
     18 C         138.2870  138.8112  165.5322 C.ar    1  UNL1        0.0293
     19 C         138.9462  139.4377  166.7250 C.ar    1  UNL1       -0.0019
     20 C         143.4073  143.9406  163.7132 C.3     1  UNL1        0.0721
     21 C         143.4577  141.7631  159.7755 C.3     1  UNL1        0.1687
     22 C         144.1633  141.1802  160.9640 C.3     1  UNL1        0.0609
     23 C         144.1465  141.9061  162.2765 C.3     1  UNL1        0.0758
     24 N         143.4241  143.2148  162.4006 N.3     1  UNL1       -0.2724
     25 C         142.7185  143.7976  161.2122 C.3     1  UNL1        0.0758
     26 C         142.7353  143.0718  159.8996 C.3     1  UNL1        0.0609
     27 O         143.4745  141.0372  158.4629 O.3     1  UNL1       -0.4794
     28 C         143.7700  139.2353  156.0826 C.3     1  UNL1        0.0343
     29 C         144.7677  140.3291  156.3237 C.ar    1  UNL1        0.0143
     30 C         145.9132  140.5219  155.3747 C.ar    1  UNL1        0.0284
     31 C         146.9110  141.6156  155.6158 C.ar    1  UNL1        0.1400
     32 F         148.0565  141.8084  154.6667 F       1  UNL1       -0.2042
     33 C         146.7633  142.5166  156.8059 C.ar    1  UNL1        0.0327
     34 C         145.6178  142.3238  157.7549 C.ar    1  UNL1        0.0389
     35 C         144.6200  141.2300  157.5138 C.ar    1  UNL1        0.1345
@<TRIPOS>UNITY_ATOM_ATTR
10 1
charge -1
@<TRIPOS>BOND
     1    28    29    1
     2    29    30   ar
     3    30    31   ar
     4    31    32    1
     5    31    33   ar
     6    33    34   ar
     7    34    35   ar
     8    35    27    1
     9    27    21    1
    10    21    22    1
    11    22    23    1
    12    23    24    1
    13    24    20    1
    14    20     1    1
    15     1     2    1
    16     2     3    1
    17     3     4    1
    18     4     7    1
    19     7     8    1
    20     7    12    1
    21    12    13    1
    22    13    14   ar
    23    14    15   ar
    24    15    16   ar
    25    16    17    1
    26    16    18   ar
    27    18    19   ar
    28     7     9    1
    29     9    10   ar
    30     9    11   ar
    31     4     5    1
    32     5     6    1
    33    24    25    1
    34    25    26    1
    35    35    29   ar
    36    26    21    1
    37     6     1    1
    38    19    13   ar
@<TRIPOS>MOLECULE
*****
 35 38 0 0 0
SMALL
GASTEIGER

@<TRIPOS>ATOM
      1 C         138.2374  140.9900  164.3952 C.3     1  UNL1        0.0188
      2 C         138.5942  139.6045  164.8460 C.3     1  UNL1        0.0188
      3 C         139.6173  139.4071  165.9251 C.3     1  UNL1        0.0724
      4 N         140.2836  140.5952  166.5532 N.3     1  UNL1       -0.2704
      5 C         139.9268  141.9806  166.1024 C.3     1  UNL1        0.0724
      6 C         138.9037  142.1780  165.0234 C.3     1  UNL1        0.0188
      7 C         141.3067  140.3978  167.6323 C.3     1  UNL1        0.0815
      8 C         140.5218  141.2969  168.5409 C.3     1  UNL1        0.0221
      9 C         142.3297  140.2005  168.7113 C.2     1  UNL1        0.0635
     10 O         142.7801  140.8039  169.3451 O.co2   1  UNL1       -0.5478
     11 O         142.8706  138.8295  168.9904 O.co2   1  UNL1       -0.5478
     12 C         142.0916  139.4987  166.7237 C.3     1  UNL1        0.0463
     13 C         143.1447  140.0754  165.8246 C.ar    1  UNL1       -0.0204
     14 C         143.3033  141.5629  165.7131 C.ar    1  UNL1       -0.0019
     15 C         144.3564  142.1395  164.8140 C.ar    1  UNL1        0.0293
     16 C         145.2509  141.2287  164.0264 C.ar    1  UNL1        0.1401
     17 F         146.3040  141.8054  163.1272 F       1  UNL1       -0.2042
     18 C         145.0923  139.7413  164.1379 C.ar    1  UNL1        0.0293
     19 C         144.0392  139.1647  165.0370 C.ar    1  UNL1       -0.0019
     20 C         137.2143  141.1873  163.3161 C.3     1  UNL1        0.0721
     21 C         138.5056  141.4614  159.0141 C.3     1  UNL1        0.1687
     22 C         137.9955  140.1619  159.5628 C.3     1  UNL1        0.0609
     23 C         137.5651  140.0705  160.9967 C.3     1  UNL1        0.0758
     24 N         137.6447  141.2787  161.8821 N.3     1  UNL1       -0.2724
     25 C         138.1548  142.5782  161.3336 C.3     1  UNL1        0.0758
     26 C         138.5852  142.6696  159.8995 C.3     1  UNL1        0.0609
     27 O         138.9360  141.5528  157.5801 O.3     1  UNL1       -0.4794
     28 C         141.2439  143.4663  157.4698 C.3     1  UNL1        0.0343
     29 C         139.9546  143.8058  156.7824 C.ar    1  UNL1        0.0143
     30 C         139.8193  145.1021  156.0399 C.ar    1  UNL1        0.0284
     31 C         138.5300  145.4416  155.3525 C.ar    1  UNL1        0.1400
     32 F         138.3948  146.7379  154.6099 F       1  UNL1       -0.2042
     33 C         137.3761  144.4849  155.4076 C.ar    1  UNL1        0.0327
     34 C         137.5114  143.1886  156.1502 C.ar    1  UNL1        0.0389
     35 C         138.8007  142.8491  156.8376 C.ar    1  UNL1        0.1345
@<TRIPOS>UNITY_ATOM_ATTR
10 1
charge -1
@<TRIPOS>BOND
     1    28    29    1
     2    29    30   ar
     3    30    31   ar
     4    31    32    1
     5    31    33   ar
     6    33    34   ar
     7    34    35   ar
     8    35    27    1
     9    27    21    1
    10    21    22    1
    11    22    23    1
    12    23    24    1
    13    24    20    1
    14    20     1    1
    15     1     2    1
    16     2     3    1
    17     3     4    1
    18     4     7    1
    19     7     8    1
    20     7    12    1
    21    12    13    1
    22    13    14   ar
    23    14    15   ar
    24    15    16   ar
    25    16    17    1
    26    16    18   ar
    27    18    19   ar
    28     7     9    1
    29     9    10   ar
    30     9    11   ar
    31     4     5    1
    32     5     6    1
    33    24    25    1
    34    25    26    1
    35    35    29   ar
    36    26    21    1
    37     6     1    1
    38    19    13   ar
@<TRIPOS>MOLECULE
*****
 35 38 0 0 0
SMALL
GASTEIGER

@<TRIPOS>ATOM
      1 C         143.4957  139.3302  163.9513 C.3     1  UNL1        0.0188
      2 C         143.6799  140.5278  164.8356 C.3     1  UNL1        0.0188
      3 C         142.7465  140.7609  165.9864 C.3     1  UNL1        0.0724
      4 N         141.6290  139.7966  166.2529 N.3     1  UNL1       -0.2704
      5 C         141.4448  138.5990  165.3687 C.3     1  UNL1        0.0724
      6 C         142.3782  138.3658  164.2179 C.3     1  UNL1        0.0188
      7 C         140.6955  140.0297  167.4038 C.3     1  UNL1        0.0815
      8 C         141.8690  140.1641  168.3283 C.3     1  UNL1        0.0221
      9 C         139.7622  140.2629  168.5546 C.2     1  UNL1        0.0635
     10 O         139.0161  139.7526  168.9441 O.co2   1  UNL1       -0.5478
     11 O         139.8838  141.5107  169.3780 O.co2   1  UNL1       -0.5478
     12 C         139.5220  139.8953  166.4793 C.3     1  UNL1        0.0463
     13 C         139.0726  141.0702  165.6621 C.ar    1  UNL1       -0.0204
     14 C         138.0761  140.8782  164.5574 C.ar    1  UNL1       -0.0019
     15 C         137.6268  142.0531  163.7402 C.ar    1  UNL1        0.0293
     16 C         138.1739  143.4199  164.0277 C.ar    1  UNL1        0.1401
     17 F         137.7245  144.5947  163.2106 F       1  UNL1       -0.2042
     18 C         139.1703  143.6118  165.1324 C.ar    1  UNL1        0.0293
     19 C         139.6197  142.4370  165.9495 C.ar    1  UNL1       -0.0019
     20 C         144.4292  139.0970  162.8005 C.3     1  UNL1        0.0721
     21 C         142.8213  138.9082  158.6018 C.3     1  UNL1        0.1687
     22 C         143.3227  140.2092  159.1552 C.3     1  UNL1        0.0609
     23 C         143.8587  140.2721  160.5547 C.3     1  UNL1        0.0758
     24 N         143.8932  139.0341  161.4010 N.3     1  UNL1       -0.2724
     25 C         143.3918  137.7332  160.8477 C.3     1  UNL1        0.0758
     26 C         142.8558  137.6702  159.4481 C.3     1  UNL1        0.0609
     27 O         142.2853  138.8453  157.2023 O.3     1  UNL1       -0.4794
     28 C         139.7920  137.3348  156.4938 C.3     1  UNL1        0.0343
     29 C         141.1318  136.8135  156.0659 C.ar    1  UNL1        0.0143
     30 C         141.2250  135.5369  155.2838 C.ar    1  UNL1        0.0284
     31 C         142.5648  135.0156  154.8560 C.ar    1  UNL1        0.1400
     32 F         142.6579  133.7390  154.0739 F       1  UNL1       -0.2042
     33 C         143.8115  135.7708  155.2102 C.ar    1  UNL1        0.0327
     34 C         143.7183  137.0473  155.9923 C.ar    1  UNL1        0.0389
     35 C         142.3784  137.5687  156.4202 C.ar    1  UNL1        0.1345
@<TRIPOS>UNITY_ATOM_ATTR
10 1
charge -1
@<TRIPOS>BOND
     1    28    29    1
     2    29    30   ar
     3    30    31   ar
     4    31    32    1
     5    31    33   ar
     6    33    34   ar
     7    34    35   ar
     8    35    27    1
     9    27    21    1
    10    21    22    1
    11    22    23    1
    12    23    24    1
    13    24    20    1
    14    20     1    1
    15     1     2    1
    16     2     3    1
    17     3     4    1
    18     4     7    1
    19     7     8    1
    20     7    12    1
    21    12    13    1
    22    13    14   ar
    23    14    15   ar
    24    15    16   ar
    25    16    17    1
    26    16    18   ar
    27    18    19   ar
    28     7     9    1
    29     9    10   ar
    30     9    11   ar
    31     4     5    1
    32     5     6    1
    33    24    25    1
    34    25    26    1
    35    35    29   ar
    36    26    21    1
    37     6     1    1
    38    19    13   ar
@<TRIPOS>MOLECULE
*****
 35 38 0 0 0
SMALL
GASTEIGER

@<TRIPOS>ATOM
      1 C         140.5719  138.4133  164.5928 C.3     1  UNL1        0.0188
      2 C         141.8867  138.9390  165.0879 C.3     1  UNL1        0.0188
      3 C         141.9189  140.0070  166.1406 C.3     1  UNL1        0.0724
      4 N         140.6364  140.5493  166.6983 N.3     1  UNL1       -0.2704
      5 C         139.3217  140.0236  166.2032 C.3     1  UNL1        0.0724
      6 C         139.2894  138.9556  165.1505 C.3     1  UNL1        0.0188
      7 C         140.6686  141.6173  167.7511 C.3     1  UNL1        0.0815
      8 C         139.8157  140.7643  168.6426 C.3     1  UNL1        0.0221
      9 C         140.7008  142.6853  168.8039 C.2     1  UNL1        0.0635
     10 O         140.0230  143.2852  169.1902 O.co2   1  UNL1       -0.5478
     11 O         141.9877  143.0117  169.5020 O.co2   1  UNL1       -0.5478
     12 C         141.5216  142.4704  166.8597 C.3     1  UNL1        0.0463
     13 C         140.8919  143.2591  165.7500 C.ar    1  UNL1       -0.0204
     14 C         139.4911  143.7751  165.8977 C.ar    1  UNL1       -0.0019
     15 C         138.8614  144.5638  164.7881 C.ar    1  UNL1        0.0293
     16 C         139.6325  144.8367  163.5306 C.ar    1  UNL1        0.1401
     17 F         139.0029  145.6254  162.4210 F       1  UNL1       -0.2042
     18 C         141.0332  144.3208  163.3829 C.ar    1  UNL1        0.0293
     19 C         141.6629  143.5320  164.4926 C.ar    1  UNL1       -0.0019
     20 C         140.5397  137.3452  163.5400 C.3     1  UNL1        0.0721
     21 C         141.1936  138.4234  159.2203 C.3     1  UNL1        0.1687
     22 C         142.3611  138.0509  160.0854 C.3     1  UNL1        0.0609
     23 C         142.1431  137.6915  161.5253 C.3     1  UNL1        0.0758
     24 N         140.7577  137.7046  162.1002 N.3     1  UNL1       -0.2724
     25 C         139.5903  138.0772  161.2352 C.3     1  UNL1        0.0758
     26 C         139.8082  138.4366  159.7952 C.3     1  UNL1        0.0609
     27 O         141.4116  138.7828  157.7805 O.3     1  UNL1       -0.4794
     28 C         139.2851  137.3983  156.1800 C.3     1  UNL1        0.0343
     29 C         140.7264  137.0283  155.9910 C.ar    1  UNL1        0.0143
     30 C         141.1045  135.9660  155.0018 C.ar    1  UNL1        0.0284
     31 C         142.5458  135.5959  154.8128 C.ar    1  UNL1        0.1400
     32 F         142.9238  134.5336  153.8235 F       1  UNL1       -0.2042
     33 C         143.6090  136.2882  155.6130 C.ar    1  UNL1        0.0327
     34 C         143.2309  137.3504  156.6022 C.ar    1  UNL1        0.0389
     35 C         141.7896  137.7205  156.7912 C.ar    1  UNL1        0.1345
@<TRIPOS>UNITY_ATOM_ATTR
10 1
charge -1
@<TRIPOS>BOND
     1    28    29    1
     2    29    30   ar
     3    30    31   ar
     4    31    32    1
     5    31    33   ar
     6    33    34   ar
     7    34    35   ar
     8    35    27    1
     9    27    21    1
    10    21    22    1
    11    22    23    1
    12    23    24    1
    13    24    20    1
    14    20     1    1
    15     1     2    1
    16     2     3    1
    17     3     4    1
    18     4     7    1
    19     7     8    1
    20     7    12    1
    21    12    13    1
    22    13    14   ar
    23    14    15   ar
    24    15    16   ar
    25    16    17    1
    26    16    18   ar
    27    18    19   ar
    28     7     9    1
    29     9    10   ar
    30     9    11   ar
    31     4     5    1
    32     5     6    1
    33    24    25    1
    34    25    26    1
    35    35    29   ar
    36    26    21    1
    37     6     1    1
    38    19    13   ar
