@<TRIPOS>MOLECULE
*****
 32 36 0 0 0
SMALL
GASTEIGER

@<TRIPOS>ATOM
      1 O         139.4484  146.0847  160.6613 O.3     1  UNL1       -0.4740
      2 C         139.6459  145.4705  162.0155 C.ar    1  UNL1        0.1388
      3 C         141.0053  145.4740  162.6495 C.ar    1  UNL1        0.0400
      4 C         141.2029  144.8597  164.0037 C.ar    1  UNL1        0.0407
      5 C         140.0410  144.2420  164.7238 C.ar    1  UNL1        0.1479
      6 C         138.6816  144.2385  164.0897 C.ar    1  UNL1        0.0407
      7 C         138.4841  144.8527  162.7356 C.ar    1  UNL1        0.0400
      8 O         140.2386  143.6278  166.0779 O.3     1  UNL1       -0.4313
      9 C         141.0468  142.3723  166.2213 C.ar    1  UNL1        0.2628
     10 N         141.8338  141.7014  165.1349 N.ar    1  UNL1       -0.2050
     11 C         142.4833  140.4818  165.7185 C.ar    1  UNL1        0.0910
     12 C         143.3761  139.4360  165.1191 C.ar    1  UNL1        0.0197
     13 C         143.8832  138.3073  165.9669 C.ar    1  UNL1        0.0016
     14 C         143.4975  138.2244  167.4141 C.ar    1  UNL1        0.0006
     15 C         142.6048  139.2701  168.0135 C.ar    1  UNL1        0.0081
     16 C         142.0977  140.3988  167.1657 C.ar    1  UNL1        0.0515
     17 S         141.2099  141.5672  167.4764 S.2     1  UNL1       -0.0283
     18 C         140.2132  145.5618  159.4817 C.3     1  UNL1        0.2226
     19 C         139.9689  144.1666  158.9882 C.3     1  UNL1        0.1200
     20 C         140.0482  140.7134  161.8725 C.3     1  UNL1        0.0781
     21 C         138.7634  141.1020  161.2029 C.3     1  UNL1        0.0372
     22 C         138.7370  142.2530  160.2414 C.3     1  UNL1        0.0739
     23 N         139.9953  143.0155  159.9497 N.3     1  UNL1       -0.2695
     24 C         141.2801  142.6269  160.6193 C.3     1  UNL1        0.0739
     25 C         141.3065  141.4759  161.5807 C.3     1  UNL1        0.0372
     26 O         141.6965  138.2833  161.2582 O.2     1  UNL1       -0.2749
     27 C         140.8987  138.3473  162.5268 C.2     1  UNL1        0.2256
     28 C         140.9251  137.1962  163.4882 C.3     1  UNL1        0.0853
     29 C         140.1273  137.2602  164.7569 C.3     1  UNL1        0.0113
     30 C         139.3031  138.4753  165.0640 C.3     1  UNL1        0.0220
     31 C         139.2768  139.6263  164.1026 C.3     1  UNL1        0.0933
     32 N         140.0746  139.5623  162.8340 N.am    1  UNL1       -0.2811
@<TRIPOS>BOND
     1    26    27    2
     2    27    28    1
     3    28    29    1
     4    29    30    1
     5    30    31    1
     6    31    32    1
     7    32    20    1
     8    20    21    1
     9    21    22    1
    10    22    23    1
    11    23    19    1
    12    19    18    1
    13    18     1    1
    14     1     2    1
    15     2     3   ar
    16     3     4   ar
    17     4     5   ar
    18     5     8    1
    19     8     9    1
    20     9    10   ar
    21    10    11   ar
    22    11    12   ar
    23    12    13   ar
    24    13    14   ar
    25    14    15   ar
    26    15    16   ar
    27    16    17   ar
    28     5     6   ar
    29     6     7   ar
    30    23    24    1
    31    24    25    1
    32    32    27   am
    33    25    20    1
    34     7     2   ar
    35    17     9   ar
    36    16    11   ar
@<TRIPOS>MOLECULE
*****
 32 36 0 0 0
SMALL
GASTEIGER

@<TRIPOS>ATOM
      1 O         141.1127  145.3481  158.4455 O.3     1  UNL1       -0.4740
      2 C         141.0743  145.1574  159.9328 C.ar    1  UNL1        0.1388
      3 C         140.0080  145.8275  160.7476 C.ar    1  UNL1        0.0400
      4 C         139.9696  145.6367  162.2350 C.ar    1  UNL1        0.0407
      5 C         140.9975  144.7758  162.9075 C.ar    1  UNL1        0.1479
      6 C         142.0638  144.1057  162.0926 C.ar    1  UNL1        0.0407
      7 C         142.1022  144.2965  160.6053 C.ar    1  UNL1        0.0400
      8 O         140.9591  144.5850  164.3948 O.3     1  UNL1       -0.4313
      9 C         140.3783  143.3297  164.9752 C.ar    1  UNL1        0.2628
     10 N         139.3684  142.4383  164.3153 N.ar    1  UNL1       -0.2050
     11 C         139.0713  141.3031  165.2496 C.ar    1  UNL1        0.0910
     12 C         138.1552  140.1211  165.1336 C.ar    1  UNL1        0.0197
     13 C         138.0654  139.1289  166.2549 C.ar    1  UNL1        0.0016
     14 C         138.8917  139.3187  167.4923 C.ar    1  UNL1        0.0006
     15 C         139.8079  140.5006  167.6083 C.ar    1  UNL1        0.0081
     16 C         139.8977  141.4929  166.4870 C.ar    1  UNL1        0.0515
     17 S         140.7054  142.7454  166.3174 S.2     1  UNL1       -0.0283
     18 C         140.0472  144.7387  157.5834 C.3     1  UNL1        0.2226
     19 C         139.9958  143.2517  157.3934 C.3     1  UNL1        0.1200
     20 C         140.5401  140.5123  160.9218 C.3     1  UNL1        0.0781
     21 C         139.3452  141.4164  160.8515 C.3     1  UNL1        0.0372
     22 C         139.1638  142.3294  159.6754 C.3     1  UNL1        0.0739
     23 N         140.1772  142.3385  158.5696 N.3     1  UNL1       -0.2695
     24 C         141.3721  141.4345  158.6399 C.3     1  UNL1        0.0739
     25 C         141.5536  140.5214  159.8161 C.3     1  UNL1        0.0372
     26 O         138.9757  137.9583  161.0934 O.2     1  UNL1       -0.2749
     27 C         139.9394  138.3222  162.1838 C.2     1  UNL1        0.2256
     28 C         140.1208  137.4091  163.3600 C.3     1  UNL1        0.0853
     29 C         141.0845  137.7730  164.4504 C.3     1  UNL1        0.0113
     30 C         141.8667  139.0501  164.3645 C.3     1  UNL1        0.0220
     31 C         141.6852  139.9632  163.1884 C.3     1  UNL1        0.0933
     32 N         140.7216  139.5992  162.0980 N.am    1  UNL1       -0.2811
@<TRIPOS>BOND
     1    26    27    2
     2    27    28    1
     3    28    29    1
     4    29    30    1
     5    30    31    1
     6    31    32    1
     7    32    20    1
     8    20    21    1
     9    21    22    1
    10    22    23    1
    11    23    19    1
    12    19    18    1
    13    18     1    1
    14     1     2    1
    15     2     3   ar
    16     3     4   ar
    17     4     5   ar
    18     5     8    1
    19     8     9    1
    20     9    10   ar
    21    10    11   ar
    22    11    12   ar
    23    12    13   ar
    24    13    14   ar
    25    14    15   ar
    26    15    16   ar
    27    16    17   ar
    28     5     6   ar
    29     6     7   ar
    30    23    24    1
    31    24    25    1
    32    32    27   am
    33    25    20    1
    34     7     2   ar
    35    17     9   ar
    36    16    11   ar
@<TRIPOS>MOLECULE
*****
 32 36 0 0 0
SMALL
GASTEIGER

@<TRIPOS>ATOM
      1 O         144.4320  138.7546  160.5295 O.3     1  UNL1       -0.4740
      2 C         143.7089  138.6635  161.8407 C.ar    1  UNL1        0.1388
      3 C         144.2655  139.3489  163.0532 C.ar    1  UNL1        0.0400
      4 C         143.5425  139.2578  164.3644 C.ar    1  UNL1        0.0407
      5 C         142.2629  138.4812  164.4629 C.ar    1  UNL1        0.1479
      6 C         141.7064  137.7958  163.2502 C.ar    1  UNL1        0.0407
      7 C         142.4294  137.8869  161.9392 C.ar    1  UNL1        0.0400
      8 O         141.5399  138.3901  165.7739 O.3     1  UNL1       -0.4313
      9 C         141.6293  139.5172  166.7597 C.ar    1  UNL1        0.2628
     10 N         142.8129  139.8427  167.6218 N.ar    1  UNL1       -0.2050
     11 C         142.4659  141.0434  168.4513 C.ar    1  UNL1        0.0910
     12 C         143.2423  141.8112  169.4797 C.ar    1  UNL1        0.0197
     13 C         142.6207  142.9955  170.1586 C.ar    1  UNL1        0.0016
     14 C         141.2227  143.4120  169.8092 C.ar    1  UNL1        0.0006
     15 C         140.4463  142.6441  168.7808 C.ar    1  UNL1        0.0081
     16 C         141.0679  141.4598  168.1019 C.ar    1  UNL1        0.0515
     17 S         140.5509  140.5166  167.0564 S.2     1  UNL1       -0.0283
     18 C         143.6667  139.0260  159.2683 C.3     1  UNL1        0.2226
     19 C         143.1309  140.4006  158.9973 C.3     1  UNL1        0.1200
     20 C         140.6371  142.4960  162.1021 C.3     1  UNL1        0.0781
     21 C         140.0505  141.3692  161.3045 C.3     1  UNL1        0.0372
     22 C         140.8818  140.6707  160.2696 C.3     1  UNL1        0.0739
     23 N         142.2996  141.0991  160.0323 N.3     1  UNL1       -0.2695
     24 C         142.8861  142.2259  160.8299 C.3     1  UNL1        0.0739
     25 C         142.0548  142.9244  161.8648 C.3     1  UNL1        0.0372
     26 O         137.8445  143.3715  161.4423 O.2     1  UNL1       -0.2749
     27 C         138.4095  143.6322  162.8072 C.2     1  UNL1        0.2256
     28 C         137.5782  144.3307  163.8421 C.3     1  UNL1        0.0853
     29 C         138.1431  144.5915  165.2070 C.3     1  UNL1        0.0113
     30 C         139.5395  144.1538  165.5368 C.3     1  UNL1        0.0220
     31 C         140.3707  143.4553  164.5019 C.3     1  UNL1        0.0933
     32 N         139.8057  143.1945  163.1371 N.am    1  UNL1       -0.2811
@<TRIPOS>BOND
     1    26    27    2
     2    27    28    1
     3    28    29    1
     4    29    30    1
     5    30    31    1
     6    31    32    1
     7    32    20    1
     8    20    21    1
     9    21    22    1
    10    22    23    1
    11    23    19    1
    12    19    18    1
    13    18     1    1
    14     1     2    1
    15     2     3   ar
    16     3     4   ar
    17     4     5   ar
    18     5     8    1
    19     8     9    1
    20     9    10   ar
    21    10    11   ar
    22    11    12   ar
    23    12    13   ar
    24    13    14   ar
    25    14    15   ar
    26    15    16   ar
    27    16    17   ar
    28     5     6   ar
    29     6     7   ar
    30    23    24    1
    31    24    25    1
    32    32    27   am
    33    25    20    1
    34     7     2   ar
    35    17     9   ar
    36    16    11   ar
@<TRIPOS>MOLECULE
*****
 32 36 0 0 0
SMALL
GASTEIGER

@<TRIPOS>ATOM
      1 O         144.4737  140.2040  158.4108 O.3     1  UNL1       -0.4740
      2 C         143.5383  139.4796  159.3330 C.ar    1  UNL1        0.1388
      3 C         144.0715  138.7966  160.5574 C.ar    1  UNL1        0.0400
      4 C         143.1361  138.0723  161.4796 C.ar    1  UNL1        0.0407
      5 C         141.6674  138.0310  161.1773 C.ar    1  UNL1        0.1479
      6 C         141.1342  138.7141  159.9529 C.ar    1  UNL1        0.0407
      7 C         142.0696  139.4383  159.0308 C.ar    1  UNL1        0.0400
      8 O         140.7320  137.3067  162.0994 O.3     1  UNL1       -0.4313
      9 C         140.3675  137.9099  163.4236 C.ar    1  UNL1        0.2628
     10 N         141.2557  138.7661  164.2768 N.ar    1  UNL1       -0.2050
     11 C         140.4881  139.1482  165.5075 C.ar    1  UNL1        0.0910
     12 C         140.8538  139.9807  166.7005 C.ar    1  UNL1        0.0197
     13 C         139.8569  140.1930  167.8009 C.ar    1  UNL1        0.0016
     14 C         138.4942  139.5729  167.7084 C.ar    1  UNL1        0.0006
     15 C         138.1285  138.7404  166.5154 C.ar    1  UNL1        0.0081
     16 C         139.1254  138.5281  165.4150 C.ar    1  UNL1        0.0515
     17 S         139.0509  137.7628  164.1270 S.2     1  UNL1       -0.0283
     18 C         144.0612  141.5093  157.7977 C.3     1  UNL1        0.2226
     19 C         144.0479  142.7575  158.6294 C.3     1  UNL1        0.1200
     20 C         140.9844  143.2576  161.8875 C.3     1  UNL1        0.0781
     21 C         140.5957  143.4671  160.4540 C.3     1  UNL1        0.0372
     22 C         141.6168  143.3004  159.3680 C.3     1  UNL1        0.0739
     23 N         143.0267  142.9242  159.7155 N.3     1  UNL1       -0.2695
     24 C         143.4154  142.7147  161.1490 C.3     1  UNL1        0.0739
     25 C         142.3943  142.8814  162.2350 C.3     1  UNL1        0.0372
     26 O         139.0848  141.0224  162.5164 O.2     1  UNL1       -0.2749
     27 C         139.0135  142.3068  163.2880 C.2     1  UNL1        0.2256
     28 C         137.9923  142.4735  164.3740 C.3     1  UNL1        0.0853
     29 C         137.9209  143.7579  165.1456 C.3     1  UNL1        0.0113
     30 C         138.8707  144.8755  164.8311 C.3     1  UNL1        0.0220
     31 C         139.8919  144.7087  163.7451 C.3     1  UNL1        0.0933
     32 N         139.9632  143.4244  162.9736 N.am    1  UNL1       -0.2811
@<TRIPOS>BOND
     1    26    27    2
     2    27    28    1
     3    28    29    1
     4    29    30    1
     5    30    31    1
     6    31    32    1
     7    32    20    1
     8    20    21    1
     9    21    22    1
    10    22    23    1
    11    23    19    1
    12    19    18    1
    13    18     1    1
    14     1     2    1
    15     2     3   ar
    16     3     4   ar
    17     4     5   ar
    18     5     8    1
    19     8     9    1
    20     9    10   ar
    21    10    11   ar
    22    11    12   ar
    23    12    13   ar
    24    13    14   ar
    25    14    15   ar
    26    15    16   ar
    27    16    17   ar
    28     5     6   ar
    29     6     7   ar
    30    23    24    1
    31    24    25    1
    32    32    27   am
    33    25    20    1
    34     7     2   ar
    35    17     9   ar
    36    16    11   ar
@<TRIPOS>MOLECULE
*****
 32 36 0 0 0
SMALL
GASTEIGER

@<TRIPOS>ATOM
      1 O         142.4310  138.4145  157.7405 O.3     1  UNL1       -0.4740
      2 C         142.9472  138.7300  159.1132 C.ar    1  UNL1        0.1388
      3 C         143.3521  140.1325  159.4581 C.ar    1  UNL1        0.0400
      4 C         143.8683  140.4480  160.8308 C.ar    1  UNL1        0.0407
      5 C         143.9795  139.3610  161.8584 C.ar    1  UNL1        0.1479
      6 C         143.5745  137.9585  161.5134 C.ar    1  UNL1        0.0407
      7 C         143.0584  137.6430  160.1408 C.ar    1  UNL1        0.0400
      8 O         144.4956  139.6765  163.2310 O.3     1  UNL1       -0.4313
      9 C         143.5465  140.1145  164.3068 C.ar    1  UNL1        0.2628
     10 N         143.8068  141.1767  165.3334 N.ar    1  UNL1       -0.2050
     11 C         142.5917  141.2859  166.2060 C.ar    1  UNL1        0.0910
     12 C         142.2755  142.1626  167.3813 C.ar    1  UNL1        0.0197
     13 C         140.9479  142.0445  168.0693 C.ar    1  UNL1        0.0016
     14 C         139.9365  141.0497  167.5821 C.ar    1  UNL1        0.0006
     15 C         140.2527  140.1730  166.4068 C.ar    1  UNL1        0.0081
     16 C         141.5803  140.2911  165.7187 C.ar    1  UNL1        0.0515
     17 S         142.1704  139.5671  164.5450 S.2     1  UNL1       -0.0283
     18 C         141.1043  137.7342  157.5761 C.3     1  UNL1        0.2226
     19 C         139.8366  138.4855  157.8559 C.3     1  UNL1        0.1200
     20 C         139.5570  141.1633  161.4616 C.3     1  UNL1        0.0781
     21 C         139.6681  141.7610  160.0903 C.3     1  UNL1        0.0372
     22 C         139.7613  140.8684  158.8884 C.3     1  UNL1        0.0739
     23 N         139.7434  139.3782  159.0578 N.3     1  UNL1       -0.2695
     24 C         139.6322  138.7805  160.4291 C.3     1  UNL1        0.0739
     25 C         139.5390  139.6731  161.6310 C.3     1  UNL1        0.0372
     26 O         136.9364  141.4960  162.8835 O.2     1  UNL1       -0.2749
     27 C         138.1535  142.2223  163.3744 C.2     1  UNL1        0.2256
     28 C         138.0603  143.1150  164.5763 C.3     1  UNL1        0.0853
     29 C         139.2774  143.8413  165.0673 C.3     1  UNL1        0.0113
     30 C         140.5878  143.6750  164.3563 C.3     1  UNL1        0.0220
     31 C         140.6809  142.7823  163.1544 C.3     1  UNL1        0.0933
     32 N         139.4638  142.0560  162.6635 N.am    1  UNL1       -0.2811
@<TRIPOS>BOND
     1    26    27    2
     2    27    28    1
     3    28    29    1
     4    29    30    1
     5    30    31    1
     6    31    32    1
     7    32    20    1
     8    20    21    1
     9    21    22    1
    10    22    23    1
    11    23    19    1
    12    19    18    1
    13    18     1    1
    14     1     2    1
    15     2     3   ar
    16     3     4   ar
    17     4     5   ar
    18     5     8    1
    19     8     9    1
    20     9    10   ar
    21    10    11   ar
    22    11    12   ar
    23    12    13   ar
    24    13    14   ar
    25    14    15   ar
    26    15    16   ar
    27    16    17   ar
    28     5     6   ar
    29     6     7   ar
    30    23    24    1
    31    24    25    1
    32    32    27   am
    33    25    20    1
    34     7     2   ar
    35    17     9   ar
    36    16    11   ar
@<TRIPOS>MOLECULE
*****
 32 36 0 0 0
SMALL
GASTEIGER

@<TRIPOS>ATOM
      1 O         142.3988  144.7986  158.5433 O.3     1  UNL1       -0.4740
      2 C         141.2359  144.2391  159.3080 C.ar    1  UNL1        0.1388
      3 C         140.1245  143.5431  158.5798 C.ar    1  UNL1        0.0400
      4 C         138.9616  142.9835  159.3446 C.ar    1  UNL1        0.0407
      5 C         138.9102  143.1200  160.8374 C.ar    1  UNL1        0.1479
      6 C         140.0218  143.8161  161.5656 C.ar    1  UNL1        0.0407
      7 C         141.1846  144.3756  160.8009 C.ar    1  UNL1        0.0400
      8 O         137.7475  142.5606  161.6022 O.3     1  UNL1       -0.4313
      9 C         137.9583  141.4338  162.5696 C.ar    1  UNL1        0.2628
     10 N         137.7134  141.4841  164.0486 N.ar    1  UNL1       -0.2050
     11 C         138.0549  140.1403  164.6210 C.ar    1  UNL1        0.0910
     12 C         138.0095  139.6049  166.0214 C.ar    1  UNL1        0.0197
     13 C         138.4201  138.1888  166.2966 C.ar    1  UNL1        0.0016
     14 C         138.8761  137.3079  165.1714 C.ar    1  UNL1        0.0006
     15 C         138.9215  137.8433  163.7709 C.ar    1  UNL1        0.0081
     16 C         138.5109  139.2595  163.4957 C.ar    1  UNL1        0.0515
     17 S         138.4512  140.0589  162.2279 S.2     1  UNL1       -0.0283
     18 C         143.1254  143.9413  157.5498 C.3     1  UNL1        0.2226
     19 C         143.8727  142.7260  158.0127 C.3     1  UNL1        0.1200
     20 C         142.9802  140.9358  162.0437 C.3     1  UNL1        0.0781
     21 C         144.0586  141.9690  161.9041 C.3     1  UNL1        0.0372
     22 C         144.3561  142.5657  160.5604 C.3     1  UNL1        0.0739
     23 N         143.5752  142.1292  159.3565 N.3     1  UNL1       -0.2695
     24 C         142.4968  141.0960  159.4961 C.3     1  UNL1        0.0739
     25 C         142.1993  140.4993  160.8397 C.3     1  UNL1        0.0372
     26 O         144.1229  138.2625  162.7841 O.2     1  UNL1       -0.2749
     27 C         143.2541  139.0025  163.7576 C.2     1  UNL1        0.2256
     28 C         142.9566  138.4058  165.1013 C.3     1  UNL1        0.0853
     29 C         142.0878  139.1457  166.0748 C.3     1  UNL1        0.0113
     30 C         141.5165  140.4824  165.7046 C.3     1  UNL1        0.0220
     31 C         141.8139  141.0790  164.3609 C.3     1  UNL1        0.0933
     32 N         142.6827  140.3391  163.3874 N.am    1  UNL1       -0.2811
@<TRIPOS>BOND
     1    26    27    2
     2    27    28    1
     3    28    29    1
     4    29    30    1
     5    30    31    1
     6    31    32    1
     7    32    20    1
     8    20    21    1
     9    21    22    1
    10    22    23    1
    11    23    19    1
    12    19    18    1
    13    18     1    1
    14     1     2    1
    15     2     3   ar
    16     3     4   ar
    17     4     5   ar
    18     5     8    1
    19     8     9    1
    20     9    10   ar
    21    10    11   ar
    22    11    12   ar
    23    12    13   ar
    24    13    14   ar
    25    14    15   ar
    26    15    16   ar
    27    16    17   ar
    28     5     6   ar
    29     6     7   ar
    30    23    24    1
    31    24    25    1
    32    32    27   am
    33    25    20    1
    34     7     2   ar
    35    17     9   ar
    36    16    11   ar
@<TRIPOS>MOLECULE
*****
 32 36 0 0 0
SMALL
GASTEIGER

@<TRIPOS>ATOM
      1 O         142.5403  139.4985  156.8594 O.3     1  UNL1       -0.4740
      2 C         142.9439  139.2577  158.2839 C.ar    1  UNL1        0.1388
      3 C         142.5774  137.9699  158.9599 C.ar    1  UNL1        0.0400
      4 C         142.9810  137.7291  160.3844 C.ar    1  UNL1        0.0407
      5 C         143.7513  138.7762  161.1329 C.ar    1  UNL1        0.1479
      6 C         144.1178  140.0642  160.4569 C.ar    1  UNL1        0.0407
      7 C         143.7142  140.3049  159.0324 C.ar    1  UNL1        0.0400
      8 O         144.1549  138.5355  162.5573 O.3     1  UNL1       -0.4313
      9 C         143.4012  139.1974  163.6726 C.ar    1  UNL1        0.2628
     10 N         142.6651  140.5016  163.5869 N.ar    1  UNL1       -0.2050
     11 C         142.0603  140.7816  164.9307 C.ar    1  UNL1        0.0910
     12 C         141.2264  141.9204  165.4384 C.ar    1  UNL1        0.0197
     13 C         140.7549  141.9281  166.8623 C.ar    1  UNL1        0.0016
     14 C         141.1172  140.7970  167.7785 C.ar    1  UNL1        0.0006
     15 C         141.9510  139.6582  167.2708 C.ar    1  UNL1        0.0081
     16 C         142.4225  139.6505  165.8469 C.ar    1  UNL1        0.0515
     17 S         143.2513  138.6715  165.0693 S.2     1  UNL1       -0.0283
     18 C         141.0994  139.7381  156.5185 C.3     1  UNL1        0.2226
     19 C         140.2727  140.6626  157.3623 C.3     1  UNL1        0.1200
     20 C         139.4311  139.6363  161.6621 C.3     1  UNL1        0.0781
     21 C         138.9288  138.7441  160.5659 C.3     1  UNL1        0.0372
     22 C         139.2093  139.0862  159.1326 C.3     1  UNL1        0.0739
     23 N         139.9922  140.3205  158.7956 N.3     1  UNL1       -0.2695
     24 C         140.4945  141.2127  159.8918 C.3     1  UNL1        0.0739
     25 C         140.2140  140.8706  161.3250 C.3     1  UNL1        0.0372
     26 O         140.5567  137.1231  162.8524 O.2     1  UNL1       -0.2749
     27 C         139.7133  138.0376  163.6905 C.2     1  UNL1        0.2256
     28 C         139.4328  137.6955  165.1238 C.3     1  UNL1        0.0853
     29 C         138.5894  138.6100  165.9619 C.3     1  UNL1        0.0113
     30 C         138.0267  139.8667  165.3667 C.3     1  UNL1        0.0220
     31 C         138.3072  140.2087  163.9335 C.3     1  UNL1        0.0933
     32 N         139.1506  139.2942  163.0954 N.am    1  UNL1       -0.2811
@<TRIPOS>BOND
     1    26    27    2
     2    27    28    1
     3    28    29    1
     4    29    30    1
     5    30    31    1
     6    31    32    1
     7    32    20    1
     8    20    21    1
     9    21    22    1
    10    22    23    1
    11    23    19    1
    12    19    18    1
    13    18     1    1
    14     1     2    1
    15     2     3   ar
    16     3     4   ar
    17     4     5   ar
    18     5     8    1
    19     8     9    1
    20     9    10   ar
    21    10    11   ar
    22    11    12   ar
    23    12    13   ar
    24    13    14   ar
    25    14    15   ar
    26    15    16   ar
    27    16    17   ar
    28     5     6   ar
    29     6     7   ar
    30    23    24    1
    31    24    25    1
    32    32    27   am
    33    25    20    1
    34     7     2   ar
    35    17     9   ar
    36    16    11   ar
@<TRIPOS>MOLECULE
*****
 32 36 0 0 0
SMALL
GASTEIGER

@<TRIPOS>ATOM
      1 O         138.0919  139.9316  158.3210 O.3     1  UNL1       -0.4740
      2 C         138.4624  139.4283  159.6847 C.ar    1  UNL1        0.1388
      3 C         137.4607  139.4776  160.8001 C.ar    1  UNL1        0.0400
      4 C         137.8312  138.9743  162.1637 C.ar    1  UNL1        0.0407
      5 C         139.2034  138.4217  162.4119 C.ar    1  UNL1        0.1479
      6 C         140.2051  138.3724  161.2965 C.ar    1  UNL1        0.0407
      7 C         139.8346  138.8756  159.9329 C.ar    1  UNL1        0.0400
      8 O         139.5739  137.9184  163.7755 O.3     1  UNL1       -0.4313
      9 C         140.1979  138.8478  164.7740 C.ar    1  UNL1        0.2628
     10 N         141.3851  138.5443  165.6391 N.ar    1  UNL1       -0.2050
     11 C         141.6652  139.7527  166.4825 C.ar    1  UNL1        0.0910
     12 C         142.7126  140.0324  167.5191 C.ar    1  UNL1        0.0197
     13 C         142.7459  141.3623  168.2119 C.ar    1  UNL1        0.0016
     14 C         141.7317  142.4127  167.8680 C.ar    1  UNL1        0.0006
     15 C         140.6842  142.1330  166.8314 C.ar    1  UNL1        0.0081
     16 C         140.6510  140.8031  166.1386 C.ar    1  UNL1        0.0515
     17 S         139.7442  140.2438  165.0828 S.2     1  UNL1       -0.0283
     18 C         138.5505  141.2872  157.8717 C.3     1  UNL1        0.2226
     19 C         138.4675  142.4556  158.8086 C.3     1  UNL1        0.1200
     20 C         141.5314  142.9488  162.0673 C.3     1  UNL1        0.0781
     21 C         140.0694  143.0014  162.3983 C.3     1  UNL1        0.0372
     22 C         139.0481  142.8370  161.3121 C.3     1  UNL1        0.0739
     23 N         139.4888  142.6200  159.8949 N.3     1  UNL1       -0.2695
     24 C         140.9509  142.5674  159.5639 C.3     1  UNL1        0.0739
     25 C         141.9722  142.7318  160.6500 C.3     1  UNL1        0.0372
     26 O         142.8790  140.5370  163.2367 O.2     1  UNL1       -0.2749
     27 C         143.2265  141.9073  163.7383 C.2     1  UNL1        0.2256
     28 C         144.2479  142.0718  164.8245 C.3     1  UNL1        0.0853
     29 C         144.5954  143.4420  165.3261 C.3     1  UNL1        0.0113
     30 C         143.9215  144.6479  164.7413 C.3     1  UNL1        0.0220
     31 C         142.9003  144.4835  163.6551 C.3     1  UNL1        0.0933
     32 N         142.5528  143.1132  163.1536 N.am    1  UNL1       -0.2811
@<TRIPOS>BOND
     1    26    27    2
     2    27    28    1
     3    28    29    1
     4    29    30    1
     5    30    31    1
     6    31    32    1
     7    32    20    1
     8    20    21    1
     9    21    22    1
    10    22    23    1
    11    23    19    1
    12    19    18    1
    13    18     1    1
    14     1     2    1
    15     2     3   ar
    16     3     4   ar
    17     4     5   ar
    18     5     8    1
    19     8     9    1
    20     9    10   ar
    21    10    11   ar
    22    11    12   ar
    23    12    13   ar
    24    13    14   ar
    25    14    15   ar
    26    15    16   ar
    27    16    17   ar
    28     5     6   ar
    29     6     7   ar
    30    23    24    1
    31    24    25    1
    32    32    27   am
    33    25    20    1
    34     7     2   ar
    35    17     9   ar
    36    16    11   ar
@<TRIPOS>MOLECULE
*****
 32 36 0 0 0
SMALL
GASTEIGER

@<TRIPOS>ATOM
      1 O         144.0172  139.5111  157.1139 O.3     1  UNL1       -0.4740
      2 C         143.6406  140.7231  157.9136 C.ar    1  UNL1        0.1388
      3 C         144.1550  140.8880  159.3129 C.ar    1  UNL1        0.0400
      4 C         143.7784  142.1000  160.1125 C.ar    1  UNL1        0.0407
      5 C         142.8874  143.1471  159.5127 C.ar    1  UNL1        0.1479
      6 C         142.3731  142.9822  158.1133 C.ar    1  UNL1        0.0407
      7 C         142.7497  141.7702  157.3137 C.ar    1  UNL1        0.0400
      8 O         142.5108  144.3590  160.3122 O.3     1  UNL1       -0.4313
      9 C         141.3966  144.2806  161.3134 C.ar    1  UNL1        0.2628
     10 N         140.1082  143.5320  161.1418 N.ar    1  UNL1       -0.2050
     11 C         139.2904  143.7257  162.3843 C.ar    1  UNL1        0.0910
     12 C         137.9339  143.2235  162.7815 C.ar    1  UNL1        0.0197
     13 C         137.3605  143.5898  164.1183 C.ar    1  UNL1        0.0016
     14 C         138.1436  144.4582  165.0578 C.ar    1  UNL1        0.0006
     15 C         139.5000  144.9603  164.6606 C.ar    1  UNL1        0.0081
     16 C         140.0735  144.5940  163.3238 C.ar    1  UNL1        0.0515
     17 S         141.3751  144.9370  162.6620 S.2     1  UNL1       -0.0283
     18 C         143.0082  138.4275  156.8742 C.3     1  UNL1        0.2226
     19 C         142.6322  137.4936  157.9861 C.3     1  UNL1        0.1200
     20 C         140.8748  139.1221  161.7952 C.3     1  UNL1        0.0781
     21 C         140.2614  139.4788  160.4737 C.3     1  UNL1        0.0372
     22 C         140.8472  138.9360  159.2040 C.3     1  UNL1        0.0739
     23 N         142.0464  138.0364  159.2559 N.3     1  UNL1       -0.2695
     24 C         142.6598  137.6797  160.5774 C.3     1  UNL1        0.0739
     25 C         142.0740  138.2226  161.8471 C.3     1  UNL1        0.0372
     26 O         142.2452  141.3657  163.2404 O.2     1  UNL1       -0.2749
     27 C         140.9742  140.7868  163.7875 C.2     1  UNL1        0.2256
     28 C         140.3883  141.3297  165.0572 C.3     1  UNL1        0.0853
     29 C         139.1173  140.7507  165.6043 C.3     1  UNL1        0.0113
     30 C         138.4321  139.6289  164.8817 C.3     1  UNL1        0.0220
     31 C         139.0180  139.0860  163.6121 C.3     1  UNL1        0.0933
     32 N         140.2890  139.6650  163.0650 N.am    1  UNL1       -0.2811
@<TRIPOS>BOND
     1    26    27    2
     2    27    28    1
     3    28    29    1
     4    29    30    1
     5    30    31    1
     6    31    32    1
     7    32    20    1
     8    20    21    1
     9    21    22    1
    10    22    23    1
    11    23    19    1
    12    19    18    1
    13    18     1    1
    14     1     2    1
    15     2     3   ar
    16     3     4   ar
    17     4     5   ar
    18     5     8    1
    19     8     9    1
    20     9    10   ar
    21    10    11   ar
    22    11    12   ar
    23    12    13   ar
    24    13    14   ar
    25    14    15   ar
    26    15    16   ar
    27    16    17   ar
    28     5     6   ar
    29     6     7   ar
    30    23    24    1
    31    24    25    1
    32    32    27   am
    33    25    20    1
    34     7     2   ar
    35    17     9   ar
    36    16    11   ar
