@<TRIPOS>MOLECULE
*****
 26 28 0 0 0
SMALL
GASTEIGER

@<TRIPOS>ATOM
      1 C         140.2311  140.9911  165.9363 C.3     1  UNL1        0.0564
      2 C         140.3958  144.1683  170.0446 C.3     1  UNL1        0.0310
      3 C         141.0083  143.0708  169.2258 C.ar    1  UNL1       -0.0221
      4 C         142.3155  142.4645  169.6422 C.ar    1  UNL1       -0.0043
      5 C         142.9280  141.3671  168.8234 C.ar    1  UNL1       -0.0006
      6 C         142.2332  140.8760  167.5881 C.ar    1  UNL1       -0.0037
      7 C         140.9260  141.4823  167.1716 C.ar    1  UNL1       -0.0155
      8 C         140.3135  142.5797  167.9905 C.ar    1  UNL1       -0.0079
      9 C         140.4874  142.3093  165.2681 C.ar    1  UNL1       -0.0152
     10 C         139.4463  143.3883  165.3137 C.ar    1  UNL1       -0.0037
     11 C         139.7027  144.7065  164.6455 C.ar    1  UNL1       -0.0003
     12 C         141.0000  144.9459  163.9316 C.ar    1  UNL1       -0.0000
     13 C         142.0411  143.8670  163.8860 C.ar    1  UNL1       -0.0003
     14 C         141.7848  142.5486  164.5542 C.ar    1  UNL1       -0.0037
     15 C         139.5363  140.5000  164.7010 C.ar    1  UNL1       -0.0152
     16 C         140.1381  139.3881  163.8938 C.ar    1  UNL1       -0.0037
     17 C         139.4433  138.8970  162.6585 C.ar    1  UNL1       -0.0003
     18 C         138.1467  139.5178  162.2303 C.ar    1  UNL1       -0.0000
     19 C         137.5448  140.6297  163.0374 C.ar    1  UNL1       -0.0003
     20 C         138.2397  141.1208  164.2728 C.ar    1  UNL1       -0.0037
     21 C         139.9748  139.6729  166.6045 C.3     1  UNL1        0.0136
     22 C         138.6459  139.4029  167.2456 C.3     1  UNL1        0.0178
     23 C         137.7764  138.2940  166.7312 C.3     1  UNL1        0.0652
     24 N         136.7981  137.6212  167.6479 N.3     1  UNL1       -0.3211
     25 H         137.3052  137.1170  168.3753 H       1  UNL1        0.1189
     26 H         136.2277  136.9653  167.1141 H       1  UNL1        0.1189
@<TRIPOS>BOND
     1     2     3    1
     2     3     4   ar
     3     4     5   ar
     4     5     6   ar
     5     6     7   ar
     6     7     1    1
     7     1    21    1
     8    21    22    1
     9    22    23    1
    10    23    24    1
    11     1     9    1
    12     9    10   ar
    13    10    11   ar
    14    11    12   ar
    15    12    13   ar
    16    13    14   ar
    17     1    15    1
    18    15    16   ar
    19    16    17   ar
    20    17    18   ar
    21    18    19   ar
    22    19    20   ar
    23     7     8   ar
    24     8     3   ar
    25    14     9   ar
    26    20    15   ar
    27    24    25    1
    28    24    26    1
@<TRIPOS>MOLECULE
*****
 26 28 0 0 0
SMALL
GASTEIGER

@<TRIPOS>ATOM
      1 C         140.8716  140.9435  167.3431 C.3     1  UNL1        0.0564
      2 C         141.1538  137.1010  163.8567 C.3     1  UNL1        0.0310
      3 C         140.3701  138.1868  164.5325 C.ar    1  UNL1       -0.0221
      4 C         138.9440  138.4373  164.1410 C.ar    1  UNL1       -0.0043
      5 C         138.1603  139.5232  164.8169 C.ar    1  UNL1       -0.0006
      6 C         138.8029  140.3586  165.8842 C.ar    1  UNL1       -0.0037
      7 C         140.2290  140.1081  166.2757 C.ar    1  UNL1       -0.0155
      8 C         141.0126  139.0222  165.5999 C.ar    1  UNL1       -0.0079
      9 C         141.1652  142.0109  166.3309 C.ar    1  UNL1       -0.0152
     10 C         140.0866  142.9666  165.9144 C.ar    1  UNL1       -0.0037
     11 C         140.3802  144.0339  164.9022 C.ar    1  UNL1       -0.0003
     12 C         141.7523  144.1456  164.3065 C.ar    1  UNL1       -0.0000
     13 C         142.8308  143.1900  164.7230 C.ar    1  UNL1       -0.0003
     14 C         142.5373  142.1226  165.7352 C.ar    1  UNL1       -0.0037
     15 C         141.5142  141.7789  168.4104 C.ar    1  UNL1       -0.0152
     16 C         142.8962  141.4486  168.8910 C.ar    1  UNL1       -0.0037
     17 C         143.5388  142.2840  169.9583 C.ar    1  UNL1       -0.0003
     18 C         142.7994  143.4498  170.5450 C.ar    1  UNL1       -0.0000
     19 C         141.4174  143.7801  170.0645 C.ar    1  UNL1       -0.0003
     20 C         140.7748  142.9447  168.9971 C.ar    1  UNL1       -0.0037
     21 C         140.5780  139.8762  168.3553 C.3     1  UNL1        0.0136
     22 C         139.5994  140.1400  169.4610 C.3     1  UNL1        0.0178
     23 C         139.9210  139.7172  170.8639 C.3     1  UNL1        0.0652
     24 N         140.6585  140.6503  171.7779 N.3     1  UNL1       -0.3211
     25 H         141.6034  140.7975  171.4231 H       1  UNL1        0.1189
     26 H         140.7056  140.2442  172.7124 H       1  UNL1        0.1189
@<TRIPOS>BOND
     1     2     3    1
     2     3     4   ar
     3     4     5   ar
     4     5     6   ar
     5     6     7   ar
     6     7     1    1
     7     1    21    1
     8    21    22    1
     9    22    23    1
    10    23    24    1
    11     1     9    1
    12     9    10   ar
    13    10    11   ar
    14    11    12   ar
    15    12    13   ar
    16    13    14   ar
    17     1    15    1
    18    15    16   ar
    19    16    17   ar
    20    17    18   ar
    21    18    19   ar
    22    19    20   ar
    23     7     8   ar
    24     8     3   ar
    25    14     9   ar
    26    20    15   ar
    27    24    25    1
    28    24    26    1
@<TRIPOS>MOLECULE
*****
 26 28 0 0 0
SMALL
GASTEIGER

@<TRIPOS>ATOM
      1 C         140.6406  141.1434  166.9348 C.3     1  UNL1        0.0564
      2 C         140.8720  137.2459  163.5060 C.3     1  UNL1        0.0310
      3 C         140.1509  138.4284  164.0818 C.ar    1  UNL1       -0.0221
      4 C         138.8243  138.8448  163.5191 C.ar    1  UNL1       -0.0043
      5 C         138.1031  140.0273  164.0949 C.ar    1  UNL1       -0.0006
      6 C         138.7085  140.7935  165.2334 C.ar    1  UNL1       -0.0037
      7 C         140.0351  140.3772  165.7961 C.ar    1  UNL1       -0.0155
      8 C         140.7563  139.1946  165.2204 C.ar    1  UNL1       -0.0079
      9 C         140.9337  142.2869  166.0093 C.ar    1  UNL1       -0.0152
     10 C         142.2881  142.4118  165.3768 C.ar    1  UNL1       -0.0037
     11 C         142.5811  143.5553  164.4514 C.ar    1  UNL1       -0.0003
     12 C         141.5198  144.5740  164.1584 C.ar    1  UNL1       -0.0000
     13 C         140.1654  144.4492  164.7909 C.ar    1  UNL1       -0.0003
     14 C         139.8723  143.3056  165.7164 C.ar    1  UNL1       -0.0037
     15 C         141.2461  141.9096  168.0733 C.ar    1  UNL1       -0.0152
     16 C         140.4688  143.0085  168.7353 C.ar    1  UNL1       -0.0037
     17 C         141.0743  143.7748  169.8738 C.ar    1  UNL1       -0.0003
     18 C         142.4571  143.4421  170.3503 C.ar    1  UNL1       -0.0000
     19 C         143.2345  142.3433  169.6884 C.ar    1  UNL1       -0.0003
     20 C         142.6290  141.5770  168.5498 C.ar    1  UNL1       -0.0037
     21 C         140.3476  139.9999  167.8602 C.3     1  UNL1        0.0136
     22 C         138.9852  139.8602  168.4719 C.3     1  UNL1        0.0178
     23 C         138.7946  140.0976  169.9407 C.3     1  UNL1        0.0652
     24 N         137.5845  139.5505  170.6380 N.3     1  UNL1       -0.3211
     25 H         136.7482  140.0123  170.2806 H       1  UNL1        0.1189
     26 H         137.6642  139.7199  171.6407 H       1  UNL1        0.1189
@<TRIPOS>BOND
     1     2     3    1
     2     3     4   ar
     3     4     5   ar
     4     5     6   ar
     5     6     7   ar
     6     7     1    1
     7     1    21    1
     8    21    22    1
     9    22    23    1
    10    23    24    1
    11     1     9    1
    12     9    10   ar
    13    10    11   ar
    14    11    12   ar
    15    12    13   ar
    16    13    14   ar
    17     1    15    1
    18    15    16   ar
    19    16    17   ar
    20    17    18   ar
    21    18    19   ar
    22    19    20   ar
    23     7     8   ar
    24     8     3   ar
    25    14     9   ar
    26    20    15   ar
    27    24    25    1
    28    24    26    1
@<TRIPOS>MOLECULE
*****
 26 28 0 0 0
SMALL
GASTEIGER

@<TRIPOS>ATOM
      1 C         141.5894  140.8592  167.1834 C.3     1  UNL1        0.0564
      2 C         145.3790  140.9200  163.6288 C.3     1  UNL1        0.0310
      3 C         144.1690  140.2653  164.2265 C.ar    1  UNL1       -0.0221
      4 C         143.6438  138.9864  163.6448 C.ar    1  UNL1       -0.0043
      5 C         142.4338  138.3317  164.2425 C.ar    1  UNL1       -0.0006
      6 C         141.7490  138.9560  165.4220 C.ar    1  UNL1       -0.0037
      7 C         142.2742  140.2349  166.0038 C.ar    1  UNL1       -0.0155
      8 C         143.4842  140.8896  165.4060 C.ar    1  UNL1       -0.0079
      9 C         140.4591  141.2928  166.2977 C.ar    1  UNL1       -0.0152
     10 C         139.3532  140.3339  165.9694 C.ar    1  UNL1       -0.0037
     11 C         138.2229  140.7675  165.0837 C.ar    1  UNL1       -0.0003
     12 C         138.1985  142.1598  164.5262 C.ar    1  UNL1       -0.0000
     13 C         139.3043  143.1186  164.8544 C.ar    1  UNL1       -0.0003
     14 C         140.4347  142.6851  165.7402 C.ar    1  UNL1       -0.0037
     15 C         140.9045  141.4835  168.3628 C.ar    1  UNL1       -0.0152
     16 C         139.7829  140.7607  169.0480 C.ar    1  UNL1       -0.0037
     17 C         139.0980  141.3850  170.2275 C.ar    1  UNL1       -0.0003
     18 C         139.5349  142.7321  170.7219 C.ar    1  UNL1       -0.0000
     19 C         140.6565  143.4550  170.0368 C.ar    1  UNL1       -0.0003
     20 C         141.3414  142.8307  168.8572 C.ar    1  UNL1       -0.0037
     21 C         142.7196  140.4257  168.0691 C.3     1  UNL1        0.0136
     22 C         142.7657  139.0208  168.5928 C.3     1  UNL1        0.0178
     23 C         142.7283  138.7700  170.0713 C.3     1  UNL1        0.0652
     24 N         143.3344  139.7648  171.0163 N.3     1  UNL1       -0.3211
     25 H         144.3439  139.7974  170.8742 H       1  UNL1        0.1189
     26 H         143.1351  139.4861  171.9771 H       1  UNL1        0.1189
@<TRIPOS>BOND
     1     2     3    1
     2     3     4   ar
     3     4     5   ar
     4     5     6   ar
     5     6     7   ar
     6     7     1    1
     7     1    21    1
     8    21    22    1
     9    22    23    1
    10    23    24    1
    11     1     9    1
    12     9    10   ar
    13    10    11   ar
    14    11    12   ar
    15    12    13   ar
    16    13    14   ar
    17     1    15    1
    18    15    16   ar
    19    16    17   ar
    20    17    18   ar
    21    18    19   ar
    22    19    20   ar
    23     7     8   ar
    24     8     3   ar
    25    14     9   ar
    26    20    15   ar
    27    24    25    1
    28    24    26    1
@<TRIPOS>MOLECULE
*****
 26 28 0 0 0
SMALL
GASTEIGER

@<TRIPOS>ATOM
      1 C         140.4820  141.2093  166.9510 C.3     1  UNL1        0.0564
      2 C         144.4033  142.4528  170.1255 C.3     1  UNL1        0.0310
      3 C         142.9914  142.6585  169.6627 C.ar    1  UNL1       -0.0221
      4 C         142.1282  143.6915  170.3242 C.ar    1  UNL1       -0.0043
      5 C         140.7163  143.8972  169.8614 C.ar    1  UNL1       -0.0006
      6 C         140.1675  143.0698  168.7370 C.ar    1  UNL1       -0.0037
      7 C         141.0307  142.0367  168.0755 C.ar    1  UNL1       -0.0155
      8 C         142.4426  141.8311  168.5383 C.ar    1  UNL1       -0.0079
      9 C         140.6767  142.3603  166.0091 C.ar    1  UNL1       -0.0152
     10 C         139.5862  143.3745  165.8287 C.ar    1  UNL1       -0.0037
     11 C         139.7809  144.5255  164.8868 C.ar    1  UNL1       -0.0003
     12 C         141.0659  144.6624  164.1252 C.ar    1  UNL1       -0.0000
     13 C         142.1563  143.6483  164.3057 C.ar    1  UNL1       -0.0003
     14 C         141.9617  142.4972  165.2476 C.ar    1  UNL1       -0.0037
     15 C         139.9333  140.3819  165.8266 C.ar    1  UNL1       -0.0152
     16 C         138.6452  140.7745  165.1658 C.ar    1  UNL1       -0.0037
     17 C         138.0965  139.9472  164.0413 C.ar    1  UNL1       -0.0003
     18 C         138.8359  138.7272  163.5777 C.ar    1  UNL1       -0.0000
     19 C         140.1240  138.3346  164.2385 C.ar    1  UNL1       -0.0003
     20 C         140.6727  139.1620  165.3630 C.ar    1  UNL1       -0.0037
     21 C         140.2873  140.0583  167.8929 C.3     1  UNL1        0.0136
     22 C         138.9549  139.8413  168.5468 C.3     1  UNL1        0.0178
     23 C         138.7738  140.1554  170.0024 C.3     1  UNL1        0.0652
     24 N         139.7326  139.6012  171.0142 N.3     1  UNL1       -0.3211
     25 H         139.6436  138.5856  171.0463 H       1  UNL1        0.1189
     26 H         139.5200  139.9904  171.9327 H       1  UNL1        0.1189
@<TRIPOS>BOND
     1     2     3    1
     2     3     4   ar
     3     4     5   ar
     4     5     6   ar
     5     6     7   ar
     6     7     1    1
     7     1    21    1
     8    21    22    1
     9    22    23    1
    10    23    24    1
    11     1     9    1
    12     9    10   ar
    13    10    11   ar
    14    11    12   ar
    15    12    13   ar
    16    13    14   ar
    17     1    15    1
    18    15    16   ar
    19    16    17   ar
    20    17    18   ar
    21    18    19   ar
    22    19    20   ar
    23     7     8   ar
    24     8     3   ar
    25    14     9   ar
    26    20    15   ar
    27    24    25    1
    28    24    26    1
@<TRIPOS>MOLECULE
*****
 26 28 0 0 0
SMALL
GASTEIGER

@<TRIPOS>ATOM
      1 C         141.5221  140.8134  167.1307 C.3     1  UNL1        0.0564
      2 C         141.2941  137.0759  163.5281 C.3     1  UNL1        0.0310
      3 C         142.0057  138.2429  164.1460 C.ar    1  UNL1       -0.0221
      4 C         143.3149  138.7080  163.5807 C.ar    1  UNL1       -0.0043
      5 C         144.0264  139.8750  164.1986 C.ar    1  UNL1       -0.0006
      6 C         143.4289  140.5768  165.3819 C.ar    1  UNL1       -0.0037
      7 C         142.1197  140.1116  165.9473 C.ar    1  UNL1       -0.0155
      8 C         141.4081  138.9447  165.3294 C.ar    1  UNL1       -0.0079
      9 C         140.3707  141.2645  166.2817 C.ar    1  UNL1       -0.0152
     10 C         140.3620  142.6488  165.7039 C.ar    1  UNL1       -0.0037
     11 C         139.2106  143.0999  164.8549 C.ar    1  UNL1       -0.0003
     12 C         138.0680  142.1667  164.5836 C.ar    1  UNL1       -0.0000
     13 C         138.0767  140.7825  165.1613 C.ar    1  UNL1       -0.0003
     14 C         139.2281  140.3314  166.0104 C.ar    1  UNL1       -0.0037
     15 C         140.9244  141.5152  168.3140 C.ar    1  UNL1       -0.0152
     16 C         141.4608  142.8481  168.7452 C.ar    1  UNL1       -0.0037
     17 C         140.8632  143.5498  169.9285 C.ar    1  UNL1       -0.0003
     18 C         139.7291  142.9189  170.6807 C.ar    1  UNL1       -0.0000
     19 C         139.1927  141.5861  170.2495 C.ar    1  UNL1       -0.0003
     20 C         139.7903  140.8843  169.0662 C.ar    1  UNL1       -0.0037
     21 C         142.6734  140.3624  167.9797 C.3     1  UNL1        0.0136
     22 C         142.6739  138.9842  168.5720 C.3     1  UNL1        0.0178
     23 C         142.6363  138.8079  170.0612 C.3     1  UNL1        0.0652
     24 N         143.3221  139.8013  170.9516 N.3     1  UNL1       -0.3211
     25 H         144.3297  139.7554  170.7996 H       1  UNL1        0.1189
     26 H         143.1150  139.5839  171.9264 H       1  UNL1        0.1189
@<TRIPOS>BOND
     1     2     3    1
     2     3     4   ar
     3     4     5   ar
     4     5     6   ar
     5     6     7   ar
     6     7     1    1
     7     1    21    1
     8    21    22    1
     9    22    23    1
    10    23    24    1
    11     1     9    1
    12     9    10   ar
    13    10    11   ar
    14    11    12   ar
    15    12    13   ar
    16    13    14   ar
    17     1    15    1
    18    15    16   ar
    19    16    17   ar
    20    17    18   ar
    21    18    19   ar
    22    19    20   ar
    23     7     8   ar
    24     8     3   ar
    25    14     9   ar
    26    20    15   ar
    27    24    25    1
    28    24    26    1
@<TRIPOS>MOLECULE
*****
 26 28 0 0 0
SMALL
GASTEIGER

@<TRIPOS>ATOM
      1 C         141.3530  141.9118  165.6071 C.3     1  UNL1        0.0564
      2 C         137.7255  138.4925  167.0734 C.3     1  UNL1        0.0310
      3 C         138.7410  139.5395  167.4236 C.ar    1  UNL1       -0.0221
      4 C         138.9581  139.9239  168.8572 C.ar    1  UNL1       -0.0043
      5 C         139.9735  140.9709  169.2074 C.ar    1  UNL1       -0.0006
      6 C         140.7718  141.6335  168.1241 C.ar    1  UNL1       -0.0037
      7 C         140.5547  141.2491  166.6905 C.ar    1  UNL1       -0.0155
      8 C         139.5392  140.2021  166.3403 C.ar    1  UNL1       -0.0079
      9 C         140.1220  142.6299  165.1394 C.ar    1  UNL1       -0.0152
     10 C         139.2040  141.9776  164.1484 C.ar    1  UNL1       -0.0037
     11 C         137.9730  142.6957  163.6807 C.ar    1  UNL1       -0.0003
     12 C         137.6599  144.0662  164.2038 C.ar    1  UNL1       -0.0000
     13 C         138.5778  144.7186  165.1947 C.ar    1  UNL1       -0.0003
     14 C         139.8088  144.0004  165.6625 C.ar    1  UNL1       -0.0037
     15 C         142.1512  142.5744  164.5238 C.ar    1  UNL1       -0.0152
     16 C         143.2146  143.5711  164.8785 C.ar    1  UNL1       -0.0037
     17 C         144.0128  144.2338  163.7951 C.ar    1  UNL1       -0.0003
     18 C         143.7477  143.8997  162.3570 C.ar    1  UNL1       -0.0000
     19 C         142.6844  142.9030  162.0023 C.ar    1  UNL1       -0.0003
     20 C         141.8861  142.2403  163.0857 C.ar    1  UNL1       -0.0037
     21 C         142.5840  141.1936  166.0749 C.3     1  UNL1        0.0136
     22 C         142.9147  139.8370  165.5269 C.3     1  UNL1        0.0178
     23 C         143.2618  138.7153  166.4604 C.3     1  UNL1        0.0652
     24 N         143.0973  138.8933  167.9406 N.3     1  UNL1       -0.3211
     25 H         143.7526  139.6008  168.2729 H       1  UNL1        0.1189
     26 H         143.2843  138.0085  168.4124 H       1  UNL1        0.1189
@<TRIPOS>BOND
     1     2     3    1
     2     3     4   ar
     3     4     5   ar
     4     5     6   ar
     5     6     7   ar
     6     7     1    1
     7     1    21    1
     8    21    22    1
     9    22    23    1
    10    23    24    1
    11     1     9    1
    12     9    10   ar
    13    10    11   ar
    14    11    12   ar
    15    12    13   ar
    16    13    14   ar
    17     1    15    1
    18    15    16   ar
    19    16    17   ar
    20    17    18   ar
    21    18    19   ar
    22    19    20   ar
    23     7     8   ar
    24     8     3   ar
    25    14     9   ar
    26    20    15   ar
    27    24    25    1
    28    24    26    1
@<TRIPOS>MOLECULE
*****
 26 28 0 0 0
SMALL
GASTEIGER

@<TRIPOS>ATOM
      1 C         141.3578  141.9826  165.8317 C.3     1  UNL1        0.0564
      2 C         140.1080  142.6201  170.8348 C.3     1  UNL1        0.0310
      3 C         140.0176  141.8284  169.5640 C.ar    1  UNL1       -0.0221
      4 C         139.2118  140.5639  169.5238 C.ar    1  UNL1       -0.0043
      5 C         139.1214  139.7722  168.2529 C.ar    1  UNL1       -0.0006
      6 C         139.8367  140.2451  167.0222 C.ar    1  UNL1       -0.0037
      7 C         140.6425  141.5097  167.0624 C.ar    1  UNL1       -0.0155
      8 C         140.7329  142.3013  168.3333 C.ar    1  UNL1       -0.0079
      9 C         140.0959  142.6337  165.3484 C.ar    1  UNL1       -0.0152
     10 C         139.9061  144.1130  165.5090 C.ar    1  UNL1       -0.0037
     11 C         138.6441  144.7640  165.0258 C.ar    1  UNL1       -0.0003
     12 C         137.5719  143.9359  164.3819 C.ar    1  UNL1       -0.0000
     13 C         137.7617  142.4566  164.2213 C.ar    1  UNL1       -0.0003
     14 C         139.0237  141.8055  164.7045 C.ar    1  UNL1       -0.0037
     15 C         142.0731  142.4555  164.6010 C.ar    1  UNL1       -0.0152
     16 C         143.1744  143.4675  164.7158 C.ar    1  UNL1       -0.0037
     17 C         143.8897  143.9404  163.4851 C.ar    1  UNL1       -0.0003
     18 C         143.5037  143.4015  162.1395 C.ar    1  UNL1       -0.0000
     19 C         142.4025  142.3896  162.0247 C.ar    1  UNL1       -0.0003
     20 C         141.6871  141.9166  163.2554 C.ar    1  UNL1       -0.0037
     21 C         142.6198  141.3315  166.3149 C.3     1  UNL1        0.0136
     22 C         143.0215  139.9877  165.7832 C.3     1  UNL1        0.0178
     23 C         143.2000  138.8321  166.7229 C.3     1  UNL1        0.0652
     24 N         143.0287  139.0328  168.1995 N.3     1  UNL1       -0.3211
     25 H         143.7632  139.6498  168.5462 H       1  UNL1        0.1189
     26 H         143.0890  138.1321  168.6743 H       1  UNL1        0.1189
@<TRIPOS>BOND
     1     2     3    1
     2     3     4   ar
     3     4     5   ar
     4     5     6   ar
     5     6     7   ar
     6     7     1    1
     7     1    21    1
     8    21    22    1
     9    22    23    1
    10    23    24    1
    11     1     9    1
    12     9    10   ar
    13    10    11   ar
    14    11    12   ar
    15    12    13   ar
    16    13    14   ar
    17     1    15    1
    18    15    16   ar
    19    16    17   ar
    20    17    18   ar
    21    18    19   ar
    22    19    20   ar
    23     7     8   ar
    24     8     3   ar
    25    14     9   ar
    26    20    15   ar
    27    24    25    1
    28    24    26    1
@<TRIPOS>MOLECULE
*****
 26 28 0 0 0
SMALL
GASTEIGER

@<TRIPOS>ATOM
      1 C         141.4087  140.1593  166.3606 C.3     1  UNL1        0.0564
      2 C         140.3232  143.9700  169.7222 C.3     1  UNL1        0.0310
      3 C         141.1681  142.8000  169.3134 C.ar    1  UNL1       -0.0221
      4 C         142.3150  142.3652  170.1767 C.ar    1  UNL1       -0.0043
      5 C         143.1599  141.1951  169.7680 C.ar    1  UNL1       -0.0006
      6 C         142.8579  140.4598  168.4960 C.ar    1  UNL1       -0.0037
      7 C         141.7109  140.8946  167.6327 C.ar    1  UNL1       -0.0155
      8 C         140.8660  142.0647  168.0414 C.ar    1  UNL1       -0.0079
      9 C         142.4659  140.9524  165.6512 C.ar    1  UNL1       -0.0152
     10 C         142.2932  142.4302  165.4601 C.ar    1  UNL1       -0.0037
     11 C         143.3503  143.2233  164.7506 C.ar    1  UNL1       -0.0003
     12 C         144.5802  142.5387  164.2322 C.ar    1  UNL1       -0.0000
     13 C         144.7529  141.0610  164.4233 C.ar    1  UNL1       -0.0003
     14 C         143.6958  140.2678  165.1327 C.ar    1  UNL1       -0.0037
     15 C         141.1066  139.4241  165.0886 C.ar    1  UNL1       -0.0152
     16 C         140.5079  140.1553  163.9237 C.ar    1  UNL1       -0.0037
     17 C         140.2059  139.4201  162.6516 C.ar    1  UNL1       -0.0003
     18 C         140.5024  137.9536  162.5444 C.ar    1  UNL1       -0.0000
     19 C         141.1011  137.2224  163.7092 C.ar    1  UNL1       -0.0003
     20 C         141.4032  137.9576  164.9813 C.ar    1  UNL1       -0.0037
     21 C         140.3516  139.3662  167.0701 C.3     1  UNL1        0.0136
     22 C         138.9016  139.6364  166.7973 C.3     1  UNL1        0.0178
     23 C         137.9796  138.5045  166.4525 C.3     1  UNL1        0.0652
     24 N         137.0429  137.9579  167.4887 N.3     1  UNL1       -0.3211
     25 H         137.5810  137.5184  168.2355 H       1  UNL1        0.1189
     26 H         136.4281  137.2660  167.0601 H       1  UNL1        0.1189
@<TRIPOS>BOND
     1     2     3    1
     2     3     4   ar
     3     4     5   ar
     4     5     6   ar
     5     6     7   ar
     6     7     1    1
     7     1    21    1
     8    21    22    1
     9    22    23    1
    10    23    24    1
    11     1     9    1
    12     9    10   ar
    13    10    11   ar
    14    11    12   ar
    15    12    13   ar
    16    13    14   ar
    17     1    15    1
    18    15    16   ar
    19    16    17   ar
    20    17    18   ar
    21    18    19   ar
    22    19    20   ar
    23     7     8   ar
    24     8     3   ar
    25    14     9   ar
    26    20    15   ar
    27    24    25    1
    28    24    26    1
