@<TRIPOS>MOLECULE
*****
 35 38 0 0 0
SMALL
GASTEIGER

@<TRIPOS>ATOM
      1 C         142.1407  141.0742  162.5274 C.ar    1  UNL1        0.0635
      2 C         141.8014  141.3838  163.9553 C.ar    1  UNL1        0.0171
      3 C         142.6960  140.9040  165.0598 C.ar    1  UNL1        0.0190
      4 C         143.9296  140.1146  164.7362 C.ar    1  UNL1        0.0023
      5 C         144.2689  139.8050  163.3082 C.ar    1  UNL1        0.0116
      6 C         143.3745  140.2848  162.2038 C.ar    1  UNL1        0.0821
      7 C         142.3567  141.2136  166.4877 C.ar    1  UNL1        0.0829
      8 C         143.1544  142.0816  167.4152 C.ar    1  UNL1        0.0246
      9 C         142.4508  142.1140  168.7396 C.ar    1  UNL1        0.0933
     10 C         141.2182  141.2661  168.6306 C.ar    1  UNL1        0.1178
     11 C         140.1414  140.9288  169.6187 C.ar    1  UNL1        0.1450
     12 N         140.1995  141.4853  171.0105 N.pl3   1  UNL1       -0.3414
     13 N         139.0063  140.0351  169.2152 N.ar    1  UNL1       -0.2065
     14 C         138.9482  139.4786  167.8234 C.ar    1  UNL1        0.2211
     15 N         140.0250  139.8159  166.8352 N.ar    1  UNL1       -0.1422
     16 N         141.1601  140.7096  167.2388 N.ar    1  UNL1       -0.2255
     17 H         140.9445  142.0719  171.2754 H       1  UNL1        0.1438
     18 H         139.4927  141.2639  171.6591 H       1  UNL1        0.1438
     19 C         142.9007  142.8628  169.9589 C.3     1  UNL1        0.4201
     20 F         143.3507  143.6116  171.1783 F       1  UNL1       -0.1658
     21 F         144.0780  141.9426  170.0897 F       1  UNL1       -0.1658
     22 F         141.7235  143.7830  169.8282 F       1  UNL1       -0.1658
     23 C         138.0999  140.3029  159.3530 C.3     1  UNL1        0.0338
     24 C         139.2258  141.1684  159.8359 C.3     1  UNL1        0.1341
     25 O         139.4573  142.5139  159.2143 O.3     1  UNL1       -0.3507
     26 C         140.5832  143.3794  159.6971 C.3     1  UNL1        0.1612
     27 C         140.0108  144.2669  158.6320 C.3     1  UNL1        0.0391
     28 C         141.5103  144.5531  159.8100 C.3     1  UNL1        0.0391
     29 C         141.4777  142.8994  160.8015 C.2     1  UNL1        0.2537
     30 O         142.6037  143.7649  161.2843 O.2     1  UNL1       -0.2720
     31 N         141.2462  141.5540  161.4230 N.am    1  UNL1       -0.2554
     32 C         140.1203  140.6885  160.9402 C.3     1  UNL1        0.1070
     33 C         139.8888  139.3431  161.5617 C.3     1  UNL1        0.0245
     34 C         143.7138  139.9752  160.7759 C.1     1  UNL1        0.1017
     35 N         144.0530  139.6656  159.3480 N.1     1  UNL1       -0.1908
@<TRIPOS>BOND
     1    24    23    1
     2    24    25    1
     3    25    26    1
     4    26    27    1
     5    26    28    1
     6    26    29    1
     7    29    30    2
     8    29    31   am
     9    31     1    1
    10     1     2   ar
    11     2     3   ar
    12     3     7    1
    13     7     8   ar
    14     8     9   ar
    15     9    19    1
    16    19    20    1
    17    19    21    1
    18    19    22    1
    19     9    10   ar
    20    10    11   ar
    21    11    12    1
    22    11    13   ar
    23    13    14   ar
    24    14    15   ar
    25    15    16   ar
    26     3     4   ar
    27     4     5   ar
    28     5     6   ar
    29     6    34    1
    30    34    35    3
    31    31    32    1
    32    32    33    1
    33    32    24    1
    34     6     1   ar
    35    16     7   ar
    36    16    10   ar
    37    12    17    1
    38    12    18    1
@<TRIPOS>MOLECULE
*****
 35 38 0 0 0
SMALL
GASTEIGER

@<TRIPOS>ATOM
      1 C         142.0722  140.9971  162.4849 C.ar    1  UNL1        0.0635
      2 C         141.7275  141.2901  163.9151 C.ar    1  UNL1        0.0171
      3 C         142.6869  140.9227  165.0082 C.ar    1  UNL1        0.0190
      4 C         143.9907  140.2623  164.6710 C.ar    1  UNL1        0.0023
      5 C         144.3353  139.9693  163.2408 C.ar    1  UNL1        0.0116
      6 C         143.3761  140.3367  162.1478 C.ar    1  UNL1        0.0821
      7 C         142.3423  141.2157  166.4384 C.ar    1  UNL1        0.0829
      8 C         143.1336  142.0773  167.3772 C.ar    1  UNL1        0.0246
      9 C         142.4262  142.0926  168.6999 C.ar    1  UNL1        0.0933
     10 C         141.1977  141.2405  168.5784 C.ar    1  UNL1        0.1178
     11 C         140.1196  140.8881  169.5599 C.ar    1  UNL1        0.1450
     12 N         140.1715  141.4300  170.9576 N.pl3   1  UNL1       -0.3414
     13 N         138.9896  139.9937  169.1438 N.ar    1  UNL1       -0.2065
     14 C         138.9378  139.4517  167.7460 C.ar    1  UNL1        0.2211
     15 N         140.0159  139.8042  166.7645 N.ar    1  UNL1       -0.1422
     16 N         141.1458  140.6985  167.1807 N.ar    1  UNL1       -0.2255
     17 H         140.9131  142.0170  171.2308 H       1  UNL1        0.1438
     18 H         139.4638  141.1987  171.6019 H       1  UNL1        0.1438
     19 C         142.8694  142.8304  169.9283 C.3     1  UNL1        0.4201
     20 F         143.3126  143.5684  171.1568 F       1  UNL1       -0.1658
     21 F         141.7065  143.7670  169.7853 F       1  UNL1       -0.1658
     22 F         144.0323  141.8939  170.0713 F       1  UNL1       -0.1658
     23 C         140.2481  144.4705  159.0778 C.3     1  UNL1        0.0338
     24 C         140.2007  143.1012  159.6884 C.3     1  UNL1        0.1341
     25 O         139.1940  142.0993  159.2059 O.3     1  UNL1       -0.3507
     26 C         139.1466  140.7301  159.8165 C.3     1  UNL1        0.1612
     27 C         138.0370  140.6070  158.8148 C.3     1  UNL1        0.0391
     28 C         138.7139  139.3180  160.0792 C.3     1  UNL1        0.0391
     29 C         140.1061  140.3627  160.9096 C.2     1  UNL1        0.2537
     30 O         140.0588  138.9934  161.5201 O.2     1  UNL1       -0.2720
     31 N         141.1128  141.3646  161.3919 N.am    1  UNL1       -0.2554
     32 C         141.1601  142.7339  160.7814 C.3     1  UNL1        0.1070
     33 C         142.1669  143.7358  161.2637 C.3     1  UNL1        0.0245
     34 C         143.7207  140.0437  160.7176 C.1     1  UNL1        0.1017
     35 N         144.0654  139.7507  159.2875 N.1     1  UNL1       -0.1908
@<TRIPOS>BOND
     1    24    23    1
     2    24    25    1
     3    25    26    1
     4    26    27    1
     5    26    28    1
     6    26    29    1
     7    29    30    2
     8    29    31   am
     9    31     1    1
    10     1     2   ar
    11     2     3   ar
    12     3     7    1
    13     7     8   ar
    14     8     9   ar
    15     9    19    1
    16    19    20    1
    17    19    21    1
    18    19    22    1
    19     9    10   ar
    20    10    11   ar
    21    11    12    1
    22    11    13   ar
    23    13    14   ar
    24    14    15   ar
    25    15    16   ar
    26     3     4   ar
    27     4     5   ar
    28     5     6   ar
    29     6    34    1
    30    34    35    3
    31    31    32    1
    32    32    33    1
    33    32    24    1
    34     6     1   ar
    35    16     7   ar
    36    16    10   ar
    37    12    17    1
    38    12    18    1
@<TRIPOS>MOLECULE
*****
 35 38 0 0 0
SMALL
GASTEIGER

@<TRIPOS>ATOM
      1 C         141.8277  140.2507  164.8005 C.ar    1  UNL1        0.0635
      2 C         141.4516  141.1301  163.6450 C.ar    1  UNL1        0.0171
      3 C         142.4188  141.3424  162.5181 C.ar    1  UNL1        0.0190
      4 C         143.7618  140.6753  162.5469 C.ar    1  UNL1        0.0023
      5 C         144.1379  139.7958  163.7024 C.ar    1  UNL1        0.0116
      6 C         143.1708  139.5835  164.8292 C.ar    1  UNL1        0.0821
      7 C         142.0427  142.2219  161.3626 C.ar    1  UNL1        0.0829
      8 C         142.4011  141.9897  159.9247 C.ar    1  UNL1        0.0246
      9 C         141.8221  143.1123  159.1157 C.ar    1  UNL1        0.0933
     10 C         141.1058  144.0382  160.0535 C.ar    1  UNL1        0.1178
     11 C         140.3470  145.3113  159.8224 C.ar    1  UNL1        0.1450
     12 N         140.2107  145.8616  158.4337 N.pl3   1  UNL1       -0.3414
     13 N         139.7245  146.0340  160.9800 N.ar    1  UNL1       -0.2065
     14 C         139.8609  145.4837  162.3687 C.ar    1  UNL1        0.2211
     15 N         140.6197  144.2107  162.5999 N.ar    1  UNL1       -0.1422
     16 N         141.2421  143.4879  161.4423 N.ar    1  UNL1       -0.2255
     17 H         140.6192  145.3872  157.6739 H       1  UNL1        0.1438
     18 H         139.7126  146.6972  158.2820 H       1  UNL1        0.1438
     19 C         141.9389  143.2796  157.6296 C.3     1  UNL1        0.4201
     20 F         142.0555  143.4469  156.1435 F       1  UNL1       -0.1658
     21 F         140.6041  142.6191  157.4504 F       1  UNL1       -0.1658
     22 F         143.2736  143.9401  157.8088 F       1  UNL1       -0.1658
     23 C         137.6629  137.8415  166.7625 C.3     1  UNL1        0.0338
     24 C         138.7782  138.8339  166.9082 C.3     1  UNL1        0.1341
     25 O         138.9263  139.6141  168.1808 O.3     1  UNL1       -0.3507
     26 C         140.0416  140.6064  168.3266 C.3     1  UNL1        0.1612
     27 C         139.3824  140.7571  169.6654 C.3     1  UNL1        0.0391
     28 C         140.9280  141.6511  168.9373 C.3     1  UNL1        0.0391
     29 C         141.0088  140.8186  167.1997 C.2     1  UNL1        0.2537
     30 O         142.1241  141.8110  167.3454 O.2     1  UNL1       -0.2720
     31 N         140.8606  140.0384  165.9272 N.am    1  UNL1       -0.2554
     32 C         139.7453  139.0461  165.7814 C.3     1  UNL1        0.1070
     33 C         139.5970  138.2659  164.5089 C.3     1  UNL1        0.0245
     34 C         143.5469  138.7041  165.9846 C.1     1  UNL1        0.1017
     35 N         143.9229  137.8247  167.1401 N.1     1  UNL1       -0.1908
@<TRIPOS>BOND
     1    24    23    1
     2    24    25    1
     3    25    26    1
     4    26    27    1
     5    26    28    1
     6    26    29    1
     7    29    30    2
     8    29    31   am
     9    31     1    1
    10     1     2   ar
    11     2     3   ar
    12     3     7    1
    13     7     8   ar
    14     8     9   ar
    15     9    19    1
    16    19    20    1
    17    19    21    1
    18    19    22    1
    19     9    10   ar
    20    10    11   ar
    21    11    12    1
    22    11    13   ar
    23    13    14   ar
    24    14    15   ar
    25    15    16   ar
    26     3     4   ar
    27     4     5   ar
    28     5     6   ar
    29     6    34    1
    30    34    35    3
    31    31    32    1
    32    32    33    1
    33    32    24    1
    34     6     1   ar
    35    16     7   ar
    36    16    10   ar
    37    12    17    1
    38    12    18    1
@<TRIPOS>MOLECULE
*****
 35 38 0 0 0
SMALL
GASTEIGER

@<TRIPOS>ATOM
      1 C         141.6965  140.1937  164.8380 C.ar    1  UNL1        0.0635
      2 C         141.3564  141.0650  163.6653 C.ar    1  UNL1        0.0171
      3 C         142.4056  141.3913  162.6441 C.ar    1  UNL1        0.0190
      4 C         143.7948  140.8464  162.7956 C.ar    1  UNL1        0.0023
      5 C         144.1349  139.9751  163.9683 C.ar    1  UNL1        0.0116
      6 C         143.0858  139.6488  164.9895 C.ar    1  UNL1        0.0821
      7 C         142.0654  142.2626  161.4714 C.ar    1  UNL1        0.0829
      8 C         142.5122  142.0492  160.0555 C.ar    1  UNL1        0.0246
      9 C         141.9417  143.1550  159.2178 C.ar    1  UNL1        0.0933
     10 C         141.1423  144.0518  160.1160 C.ar    1  UNL1        0.1178
     11 C         140.3546  145.2994  159.8455 C.ar    1  UNL1        0.1450
     12 N         140.2781  145.8509  158.4527 N.pl3   1  UNL1       -0.3414
     13 N         139.6434  145.9953  160.9679 N.ar    1  UNL1       -0.2065
     14 C         139.7199  145.4438  162.3607 C.ar    1  UNL1        0.2211
     15 N         140.5076  144.1963  162.6312 N.ar    1  UNL1       -0.1422
     16 N         141.2188  143.5003  161.5088 N.ar    1  UNL1       -0.2255
     17 H         140.7449  145.3941  157.7160 H       1  UNL1        0.1438
     18 H         139.7612  146.6697  158.2752 H       1  UNL1        0.1438
     19 C         142.1363  143.3328  157.7411 C.3     1  UNL1        0.4201
     20 F         142.3311  143.5107  156.2645 F       1  UNL1       -0.1658
     21 F         143.4643  143.9827  157.9944 F       1  UNL1       -0.1658
     22 F         140.8084  142.6830  157.4878 F       1  UNL1       -0.1658
     23 C         139.5275  141.0261  169.4857 C.3     1  UNL1        0.0338
     24 C         139.5628  140.2836  168.1829 C.3     1  UNL1        0.1341
     25 O         138.5488  139.2146  167.9013 O.3     1  UNL1       -0.3507
     26 C         138.5841  138.4720  166.5984 C.3     1  UNL1        0.1612
     27 C         137.4050  137.8077  167.2450 C.3     1  UNL1        0.0391
     28 C         138.2099  137.4987  165.5202 C.3     1  UNL1        0.0391
     29 C         139.6334  138.7984  165.5773 C.2     1  UNL1        0.2537
     30 O         139.6688  138.0559  164.2745 O.2     1  UNL1       -0.2720
     31 N         140.6473  139.8674  165.8591 N.am    1  UNL1       -0.2554
     32 C         140.6120  140.6099  167.1619 C.3     1  UNL1        0.1070
     33 C         141.6259  141.6789  167.4436 C.3     1  UNL1        0.0245
     34 C         143.4259  138.7775  166.1622 C.1     1  UNL1        0.1017
     35 N         143.7661  137.9062  167.3347 N.1     1  UNL1       -0.1908
@<TRIPOS>BOND
     1    24    23    1
     2    24    25    1
     3    25    26    1
     4    26    27    1
     5    26    28    1
     6    26    29    1
     7    29    30    2
     8    29    31   am
     9    31     1    1
    10     1     2   ar
    11     2     3   ar
    12     3     7    1
    13     7     8   ar
    14     8     9   ar
    15     9    19    1
    16    19    20    1
    17    19    21    1
    18    19    22    1
    19     9    10   ar
    20    10    11   ar
    21    11    12    1
    22    11    13   ar
    23    13    14   ar
    24    14    15   ar
    25    15    16   ar
    26     3     4   ar
    27     4     5   ar
    28     5     6   ar
    29     6    34    1
    30    34    35    3
    31    31    32    1
    32    32    33    1
    33    32    24    1
    34     6     1   ar
    35    16     7   ar
    36    16    10   ar
    37    12    17    1
    38    12    18    1
@<TRIPOS>MOLECULE
*****
 35 38 0 0 0
SMALL
GASTEIGER

@<TRIPOS>ATOM
      1 C         140.3039  140.6378  164.7992 C.ar    1  UNL1        0.0635
      2 C         140.8054  141.3995  163.6083 C.ar    1  UNL1        0.0171
      3 C         139.8813  141.6970  162.4647 C.ar    1  UNL1        0.0190
      4 C         138.4558  141.2328  162.5122 C.ar    1  UNL1        0.0023
      5 C         137.9542  140.4711  163.7031 C.ar    1  UNL1        0.0116
      6 C         138.8783  140.1736  164.8467 C.ar    1  UNL1        0.0821
      7 C         140.3828  142.4586  161.2737 C.ar    1  UNL1        0.0829
      8 C         139.6424  143.5387  160.5423 C.ar    1  UNL1        0.0246
      9 C         140.5148  144.0215  159.4216 C.ar    1  UNL1        0.0933
     10 C         141.7944  143.2398  159.4606 C.ar    1  UNL1        0.1178
     11 C         143.0233  143.2827  158.6016 C.ar    1  UNL1        0.1450
     12 N         143.1049  144.2487  157.4569 N.pl3   1  UNL1       -0.3414
     13 N         144.1706  142.3597  158.8873 N.ar    1  UNL1       -0.2065
     14 C         144.0890  141.3938  160.0320 C.ar    1  UNL1        0.2211
     15 N         142.8601  141.3508  160.8910 N.ar    1  UNL1       -0.1422
     16 N         141.7128  142.2738  160.6052 N.ar    1  UNL1       -0.2255
     17 H         142.3519  144.8545  157.2694 H       1  UNL1        0.1438
     18 H         143.9115  144.2768  156.8931 H       1  UNL1        0.1438
     19 C         140.1685  145.0972  158.4353 C.3     1  UNL1        0.4201
     20 F         139.8222  146.1730  157.4489 F       1  UNL1       -0.1658
     21 F         141.0517  146.0587  159.1737 F       1  UNL1       -0.1658
     22 F         139.2853  144.1358  157.6968 F       1  UNL1       -0.1658
     23 C         143.9732  137.6623  166.9629 C.3     1  UNL1        0.0338
     24 C         143.0626  138.8526  167.0245 C.3     1  UNL1        0.1341
     25 O         143.0762  139.7456  168.2297 O.3     1  UNL1       -0.3507
     26 C         142.1656  140.9360  168.2914 C.3     1  UNL1        0.1612
     27 C         142.8568  141.0679  169.6160 C.3     1  UNL1        0.0391
     28 C         141.4950  142.1722  168.8131 C.3     1  UNL1        0.0391
     29 C         141.2414  141.2334  167.1478 C.2     1  UNL1        0.2537
     30 O         140.3308  142.4237  167.2094 O.2     1  UNL1       -0.2720
     31 N         141.2280  140.3404  165.9427 N.am    1  UNL1       -0.2554
     32 C         142.1386  139.1500  165.8810 C.3     1  UNL1        0.1070
     33 C         142.1251  138.2570  164.6759 C.3     1  UNL1        0.0245
     34 C         138.3767  139.4120  166.0376 C.1     1  UNL1        0.1017
     35 N         137.8753  138.6504  167.2286 N.1     1  UNL1       -0.1908
@<TRIPOS>BOND
     1    24    23    1
     2    24    25    1
     3    25    26    1
     4    26    27    1
     5    26    28    1
     6    26    29    1
     7    29    30    2
     8    29    31   am
     9    31     1    1
    10     1     2   ar
    11     2     3   ar
    12     3     7    1
    13     7     8   ar
    14     8     9   ar
    15     9    19    1
    16    19    20    1
    17    19    21    1
    18    19    22    1
    19     9    10   ar
    20    10    11   ar
    21    11    12    1
    22    11    13   ar
    23    13    14   ar
    24    14    15   ar
    25    15    16   ar
    26     3     4   ar
    27     4     5   ar
    28     5     6   ar
    29     6    34    1
    30    34    35    3
    31    31    32    1
    32    32    33    1
    33    32    24    1
    34     6     1   ar
    35    16     7   ar
    36    16    10   ar
    37    12    17    1
    38    12    18    1
@<TRIPOS>MOLECULE
*****
 35 38 0 0 0
SMALL
GASTEIGER

@<TRIPOS>ATOM
      1 C         141.3543  142.3395  162.1276 C.ar    1  UNL1        0.0635
      2 C         141.2097  141.8686  163.5444 C.ar    1  UNL1        0.0171
      3 C         141.5271  142.7968  164.6793 C.ar    1  UNL1        0.0190
      4 C         141.9890  144.1957  164.3973 C.ar    1  UNL1        0.0023
      5 C         142.1337  144.6665  162.9804 C.ar    1  UNL1        0.0116
      6 C         141.8163  143.7384  161.8456 C.ar    1  UNL1        0.0821
      7 C         141.3824  142.3260  166.0962 C.ar    1  UNL1        0.0829
      8 C         140.5957  143.0080  167.1759 C.ar    1  UNL1        0.0246
      9 C         140.7262  142.1940  168.4290 C.ar    1  UNL1        0.0933
     10 C         141.5936  141.0089  168.1238 C.ar    1  UNL1        0.1178
     11 C         142.0666  139.8661  168.9724 C.ar    1  UNL1        0.1450
     12 N         141.6610  139.7845  170.4142 N.pl3   1  UNL1       -0.3414
     13 N         142.9451  138.8048  168.3792 N.ar    1  UNL1       -0.2065
     14 C         143.3507  138.8864  166.9374 C.ar    1  UNL1        0.2211
     15 N         142.8777  140.0293  166.0888 N.ar    1  UNL1       -0.1422
     16 N         141.9992  141.0905  166.6820 N.ar    1  UNL1       -0.2255
     17 H         141.0844  140.4810  170.8036 H       1  UNL1        0.1438
     18 H         141.9714  139.0344  170.9712 H       1  UNL1        0.1438
     19 C         140.0994  142.5096  169.7547 C.3     1  UNL1        0.4201
     20 F         139.4726  142.8253  171.0805 F       1  UNL1       -0.1658
     21 F         141.0627  143.6444  169.9400 F       1  UNL1       -0.1658
     22 F         139.1362  141.3749  169.5695 F       1  UNL1       -0.1658
     23 C         137.9802  140.4907  158.6351 C.3     1  UNL1        0.0338
     24 C         139.3499  140.4869  159.2466 C.3     1  UNL1        0.1341
     25 O         140.4023  139.5548  158.7232 O.3     1  UNL1       -0.3507
     26 C         141.7720  139.5510  159.3347 C.3     1  UNL1        0.1612
     27 C         141.9521  138.4940  158.2859 C.3     1  UNL1        0.0391
     28 C         143.2042  139.1800  159.5819 C.3     1  UNL1        0.0391
     29 C         142.0893  140.4792  160.4696 C.2     1  UNL1        0.2537
     30 O         143.4590  140.4754  161.0811 O.2     1  UNL1       -0.2720
     31 N         141.0369  141.4113  160.9929 N.am    1  UNL1       -0.2554
     32 C         139.6672  141.4151  160.3814 C.3     1  UNL1        0.1070
     33 C         138.6148  142.3471  160.9046 C.3     1  UNL1        0.0245
     34 C         141.9609  144.2092  160.4288 C.1     1  UNL1        0.1017
     35 N         142.1054  144.6800  159.0120 N.1     1  UNL1       -0.1908
@<TRIPOS>BOND
     1    24    23    1
     2    24    25    1
     3    25    26    1
     4    26    27    1
     5    26    28    1
     6    26    29    1
     7    29    30    2
     8    29    31   am
     9    31     1    1
    10     1     2   ar
    11     2     3   ar
    12     3     7    1
    13     7     8   ar
    14     8     9   ar
    15     9    19    1
    16    19    20    1
    17    19    21    1
    18    19    22    1
    19     9    10   ar
    20    10    11   ar
    21    11    12    1
    22    11    13   ar
    23    13    14   ar
    24    14    15   ar
    25    15    16   ar
    26     3     4   ar
    27     4     5   ar
    28     5     6   ar
    29     6    34    1
    30    34    35    3
    31    31    32    1
    32    32    33    1
    33    32    24    1
    34     6     1   ar
    35    16     7   ar
    36    16    10   ar
    37    12    17    1
    38    12    18    1
@<TRIPOS>MOLECULE
*****
 35 38 0 0 0
SMALL
GASTEIGER

@<TRIPOS>ATOM
      1 C         140.6840  142.5260  162.3707 C.ar    1  UNL1        0.0635
      2 C         140.8675  141.9907  163.7599 C.ar    1  UNL1        0.0171
      3 C         140.6995  142.8989  164.9420 C.ar    1  UNL1        0.0190
      4 C         140.3479  144.3422  164.7347 C.ar    1  UNL1        0.0023
      5 C         140.1644  144.8775  163.3455 C.ar    1  UNL1        0.0116
      6 C         140.3325  143.9695  162.1636 C.ar    1  UNL1        0.0821
      7 C         140.8829  142.3636  166.3311 C.ar    1  UNL1        0.0829
      8 C         140.3071  142.9508  167.5855 C.ar    1  UNL1        0.0246
      9 C         140.7428  142.0972  168.7394 C.ar    1  UNL1        0.0933
     10 C         141.5879  140.9823  168.1981 C.ar    1  UNL1        0.1178
     11 C         142.2897  139.8386  168.8683 C.ar    1  UNL1        0.1450
     12 N         142.2031  139.6739  170.3567 N.pl3   1  UNL1       -0.3414
     13 N         143.0782  138.8595  168.0501 N.ar    1  UNL1       -0.2065
     14 C         143.1649  139.0241  166.5617 C.ar    1  UNL1        0.2211
     15 N         142.4630  140.1679  165.8915 N.ar    1  UNL1       -0.1422
     16 N         141.6745  141.1470  166.7097 N.ar    1  UNL1       -0.2255
     17 H         141.6856  140.3166  170.8938 H       1  UNL1        0.1438
     18 H         142.6638  138.9232  170.7966 H       1  UNL1        0.1438
     19 C         140.3945  142.3193  170.1814 C.3     1  UNL1        0.4201
     20 F         140.0463  142.5415  171.6234 F       1  UNL1       -0.1658
     21 F         141.6149  143.1761  170.3442 F       1  UNL1       -0.1658
     22 F         139.1741  141.4626  170.0186 F       1  UNL1       -0.1658
     23 C         143.7296  140.3382  158.7739 C.3     1  UNL1        0.0338
     24 C         142.3749  140.5239  159.3904 C.3     1  UNL1        0.1341
     25 O         141.1881  139.8014  158.8249 O.3     1  UNL1       -0.3507
     26 C         139.8334  139.9872  159.4415 C.3     1  UNL1        0.1612
     27 C         139.4893  139.0278  158.3409 C.3     1  UNL1        0.0391
     28 C         138.3591  139.8397  159.6757 C.3     1  UNL1        0.0391
     29 C         139.6653  140.8954  160.6234 C.2     1  UNL1        0.2537
     30 O         138.3106  141.0812  161.2400 O.2     1  UNL1       -0.2720
     31 N         140.8521  141.6179  161.1888 N.am    1  UNL1       -0.2554
     32 C         142.2069  141.4321  160.5723 C.3     1  UNL1        0.1070
     33 C         143.3937  142.1545  161.1377 C.3     1  UNL1        0.0245
     34 C         140.1490  144.5048  160.7744 C.1     1  UNL1        0.1017
     35 N         139.9656  145.0400  159.3852 N.1     1  UNL1       -0.1908
@<TRIPOS>BOND
     1    24    23    1
     2    24    25    1
     3    25    26    1
     4    26    27    1
     5    26    28    1
     6    26    29    1
     7    29    30    2
     8    29    31   am
     9    31     1    1
    10     1     2   ar
    11     2     3   ar
    12     3     7    1
    13     7     8   ar
    14     8     9   ar
    15     9    19    1
    16    19    20    1
    17    19    21    1
    18    19    22    1
    19     9    10   ar
    20    10    11   ar
    21    11    12    1
    22    11    13   ar
    23    13    14   ar
    24    14    15   ar
    25    15    16   ar
    26     3     4   ar
    27     4     5   ar
    28     5     6   ar
    29     6    34    1
    30    34    35    3
    31    31    32    1
    32    32    33    1
    33    32    24    1
    34     6     1   ar
    35    16     7   ar
    36    16    10   ar
    37    12    17    1
    38    12    18    1
@<TRIPOS>MOLECULE
*****
 35 38 0 0 0
SMALL
GASTEIGER

@<TRIPOS>ATOM
      1 C         140.4889  143.3439  163.4704 C.ar    1  UNL1        0.0635
      2 C         141.2363  143.0679  162.1995 C.ar    1  UNL1        0.0171
      3 C         141.2538  144.0909  161.1025 C.ar    1  UNL1        0.0190
      4 C         140.5239  145.3896  161.2764 C.ar    1  UNL1        0.0023
      5 C         139.7764  145.6655  162.5473 C.ar    1  UNL1        0.0116
      6 C         139.7589  144.6427  163.6443 C.ar    1  UNL1        0.0821
      7 C         142.0013  143.8149  159.8316 C.ar    1  UNL1        0.0829
      8 C         143.1103  142.8197  159.6593 C.ar    1  UNL1        0.0246
      9 C         143.5653  142.8755  158.2311 C.ar    1  UNL1        0.0933
     10 C         142.7376  143.9052  157.5207 C.ar    1  UNL1        0.1178
     11 C         142.7392  144.3891  156.1009 C.ar    1  UNL1        0.1450
     12 N         143.7059  143.8085  155.1117 N.pl3   1  UNL1       -0.3414
     13 N         141.7742  145.4536  155.6704 N.ar    1  UNL1       -0.2065
     14 C         140.8075  146.0342  156.6595 C.ar    1  UNL1        0.2211
     15 N         140.8059  145.5503  158.0793 N.ar    1  UNL1       -0.1422
     16 N         141.7710  144.4858  158.5099 N.ar    1  UNL1       -0.2255
     17 H         144.3393  143.1098  155.3944 H       1  UNL1        0.1438
     18 H         143.7069  144.1262  154.1799 H       1  UNL1        0.1438
     19 C         144.6566  142.0471  157.6204 C.3     1  UNL1        0.4201
     20 F         145.7478  141.2186  157.0097 F       1  UNL1       -0.1658
     21 F         143.6275  141.1535  156.9938 F       1  UNL1       -0.1658
     22 F         145.6856  142.9406  158.2469 F       1  UNL1       -0.1658
     23 C         138.1403  139.4048  165.9133 C.3     1  UNL1        0.0338
     24 C         139.2972  140.3514  165.7888 C.3     1  UNL1        0.1341
     25 O         140.4367  140.2751  166.7614 O.3     1  UNL1       -0.3507
     26 C         141.5936  141.2217  166.6369 C.3     1  UNL1        0.1612
     27 C         142.0307  140.4324  167.8351 C.3     1  UNL1        0.0391
     28 C         142.9023  141.8942  166.9285 C.3     1  UNL1        0.0391
     29 C         141.6109  142.2447  165.5398 C.2     1  UNL1        0.2537
     30 O         142.7678  143.1913  165.4153 O.2     1  UNL1       -0.2720
     31 N         140.4714  142.3209  164.5673 N.am    1  UNL1       -0.2554
     32 C         139.3145  141.3743  164.6918 C.3     1  UNL1        0.1070
     33 C         138.1750  141.4506  163.7194 C.3     1  UNL1        0.0245
     34 C         139.0114  144.9186  164.9152 C.1     1  UNL1        0.1017
     35 N         138.2639  145.1945  166.1860 N.1     1  UNL1       -0.1908
@<TRIPOS>BOND
     1    24    23    1
     2    24    25    1
     3    25    26    1
     4    26    27    1
     5    26    28    1
     6    26    29    1
     7    29    30    2
     8    29    31   am
     9    31     1    1
    10     1     2   ar
    11     2     3   ar
    12     3     7    1
    13     7     8   ar
    14     8     9   ar
    15     9    19    1
    16    19    20    1
    17    19    21    1
    18    19    22    1
    19     9    10   ar
    20    10    11   ar
    21    11    12    1
    22    11    13   ar
    23    13    14   ar
    24    14    15   ar
    25    15    16   ar
    26     3     4   ar
    27     4     5   ar
    28     5     6   ar
    29     6    34    1
    30    34    35    3
    31    31    32    1
    32    32    33    1
    33    32    24    1
    34     6     1   ar
    35    16     7   ar
    36    16    10   ar
    37    12    17    1
    38    12    18    1
@<TRIPOS>MOLECULE
*****
 35 38 0 0 0
SMALL
GASTEIGER

@<TRIPOS>ATOM
      1 C         140.5635  143.3626  163.2972 C.ar    1  UNL1        0.0635
      2 C         141.3192  143.0645  162.0362 C.ar    1  UNL1        0.0171
      3 C         141.3700  144.0808  160.9341 C.ar    1  UNL1        0.0190
      4 C         140.6651  145.3952  161.0931 C.ar    1  UNL1        0.0023
      5 C         139.9094  145.6934  162.3540 C.ar    1  UNL1        0.0116
      6 C         139.8586  144.6771  163.4561 C.ar    1  UNL1        0.0821
      7 C         142.1257  143.7826  159.6732 C.ar    1  UNL1        0.0829
      8 C         143.2440  142.7935  159.5285 C.ar    1  UNL1        0.0246
      9 C         143.7052  142.8208  158.1014 C.ar    1  UNL1        0.0933
     10 C         142.8719  143.8269  157.3641 C.ar    1  UNL1        0.1178
     11 C         142.8760  144.2785  155.9338 C.ar    1  UNL1        0.1450
     12 N         143.8522  143.6840  154.9623 N.pl3   1  UNL1       -0.3414
     13 N         141.9038  145.3245  155.4748 N.ar    1  UNL1       -0.2065
     14 C         140.9277  145.9190  156.4462 C.ar    1  UNL1        0.2211
     15 N         140.9236  145.4674  157.8766 N.ar    1  UNL1       -0.1422
     16 N         141.8958  144.4213  158.3356 N.ar    1  UNL1       -0.2255
     17 H         144.4902  142.9974  155.2636 H       1  UNL1        0.1438
     18 H         143.8548  143.9804  154.0235 H       1  UNL1        0.1438
     19 C         144.8063  141.9883  157.5146 C.3     1  UNL1        0.4201
     20 F         145.9074  141.1556  156.9277 F       1  UNL1       -0.1658
     21 F         143.7878  141.0817  156.8895 F       1  UNL1       -0.1658
     22 F         145.8248  142.8948  158.1395 F       1  UNL1       -0.1658
     23 C         142.7105  141.1479  167.4787 C.3     1  UNL1        0.0338
     24 C         141.5862  141.2389  166.4900 C.3     1  UNL1        0.1341
     25 O         140.4111  140.3135  166.6032 O.3     1  UNL1       -0.3507
     26 C         139.2869  140.4045  165.6144 C.3     1  UNL1        0.1612
     27 C         138.7850  139.2847  166.4770 C.3     1  UNL1        0.0391
     28 C         137.9883  140.1065  164.9252 C.3     1  UNL1        0.0391
     29 C         139.3377  141.4209  164.5124 C.2     1  UNL1        0.2537
     30 O         138.2134  141.5119  163.5236 O.2     1  UNL1       -0.2720
     31 N         140.5128  142.3463  164.3992 N.am    1  UNL1       -0.2554
     32 C         141.6370  142.2553  165.3880 C.3     1  UNL1        0.1070
     33 C         142.8122  143.1807  165.2748 C.3     1  UNL1        0.0245
     34 C         139.1029  144.9753  164.7171 C.1     1  UNL1        0.1017
     35 N         138.3471  145.2735  165.9779 N.1     1  UNL1       -0.1908
@<TRIPOS>BOND
     1    24    23    1
     2    24    25    1
     3    25    26    1
     4    26    27    1
     5    26    28    1
     6    26    29    1
     7    29    30    2
     8    29    31   am
     9    31     1    1
    10     1     2   ar
    11     2     3   ar
    12     3     7    1
    13     7     8   ar
    14     8     9   ar
    15     9    19    1
    16    19    20    1
    17    19    21    1
    18    19    22    1
    19     9    10   ar
    20    10    11   ar
    21    11    12    1
    22    11    13   ar
    23    13    14   ar
    24    14    15   ar
    25    15    16   ar
    26     3     4   ar
    27     4     5   ar
    28     5     6   ar
    29     6    34    1
    30    34    35    3
    31    31    32    1
    32    32    33    1
    33    32    24    1
    34     6     1   ar
    35    16     7   ar
    36    16    10   ar
    37    12    17    1
    38    12    18    1
