@<TRIPOS>MOLECULE
*****
 33 34 0 0 0
SMALL
GASTEIGER

@<TRIPOS>ATOM
      1 C         140.3226  140.2197  167.0661 C.3     1  UNL1        0.0197
      2 C         138.9155  139.7260  167.2279 C.3     1  UNL1        0.0187
      3 C         138.3401  138.7613  166.2338 C.3     1  UNL1        0.0722
      4 N         138.6119  138.9419  164.7697 N.3     1  UNL1       -0.2712
      5 C         138.2077  140.2127  164.0829 C.3     1  UNL1        0.0896
      6 C         139.2880  137.8516  163.9924 C.3     1  UNL1        0.0768
      7 C         140.5652  137.2502  164.4994 C.3     1  UNL1        0.0438
      8 C         144.4253  139.5356  164.1429 C.ar    1  UNL1        0.1724
      9 C         143.9852  139.0103  165.4772 C.ar    1  UNL1        0.0397
     10 C         142.6985  138.2485  165.5960 C.ar    1  UNL1       -0.0009
     11 C         141.8519  138.0120  164.3806 C.ar    1  UNL1       -0.0176
     12 C         142.2920  138.5373  163.0463 C.ar    1  UNL1        0.0358
     13 C         143.5787  139.2991  162.9275 C.ar    1  UNL1        0.1721
     14 C         145.6877  141.7831  163.8190 C.3     1  UNL1        0.2526
     15 O         145.7119  140.2974  164.0241 O.3     1  UNL1       -0.4684
     16 O         144.0187  139.8245  161.5931 O.3     1  UNL1       -0.4684
     17 C         143.7515  139.0301  160.3491 C.3     1  UNL1        0.2526
     18 C         140.8351  141.3245  167.9417 C.3     1  UNL1        0.0981
     19 C         141.0041  142.2013  166.7365 C.ar    1  UNL1       -0.0065
     20 C         142.3205  142.2440  166.0187 C.ar    1  UNL1        0.0000
     21 C         142.4894  143.1208  164.8134 C.ar    1  UNL1        0.0398
     22 C         141.3420  143.9549  164.3259 C.ar    1  UNL1        0.1724
     23 C         140.0257  143.9122  165.0437 C.ar    1  UNL1        0.1721
     24 C         139.8567  143.0354  166.2490 C.ar    1  UNL1        0.0367
     25 O         141.5110  144.8317  163.1207 O.3     1  UNL1       -0.4684
     26 C         142.2761  144.3323  161.9312 C.3     1  UNL1        0.2526
     27 O         138.8781  144.7464  164.5563 O.3     1  UNL1       -0.4684
     28 C         137.9941  144.2366  163.4570 C.3     1  UNL1        0.2526
     29 C         141.3477  142.4293  168.8173 C.3     1  UNL1        0.0169
     30 C         140.4015  143.4638  169.3507 C.3     1  UNL1        0.0014
     31 C         142.8065  142.4996  169.1595 C.3     1  UNL1        0.0014
     32 C         140.6662  140.4477  169.1470 C.1     1  UNL1        0.0752
     33 N         140.4972  139.5709  170.3522 N.1     1  UNL1       -0.1956
@<TRIPOS>BOND
     1    14    15    1
     2    15     8    1
     3     8     9   ar
     4     9    10   ar
     5    10    11   ar
     6    11     7    1
     7     7     6    1
     8     6     4    1
     9     4     5    1
    10     4     3    1
    11     3     2    1
    12     2     1    1
    13     1    18    1
    14    18    32    1
    15    32    33    3
    16    18    19    1
    17    19    20   ar
    18    20    21   ar
    19    21    22   ar
    20    22    25    1
    21    25    26    1
    22    22    23   ar
    23    23    27    1
    24    27    28    1
    25    23    24   ar
    26    18    29    1
    27    29    30    1
    28    29    31    1
    29    11    12   ar
    30    12    13   ar
    31    13    16    1
    32    16    17    1
    33    13     8   ar
    34    24    19   ar
@<TRIPOS>MOLECULE
*****
 33 34 0 0 0
SMALL
GASTEIGER

@<TRIPOS>ATOM
      1 C         141.7974  142.6646  164.3245 C.3     1  UNL1        0.0197
      2 C         142.9688  143.4493  164.8361 C.3     1  UNL1        0.0187
      3 C         144.0863  143.8206  163.9069 C.3     1  UNL1        0.0722
      4 N         144.5413  142.8517  162.8562 N.3     1  UNL1       -0.2712
      5 C         143.9076  142.8672  161.4967 C.3     1  UNL1        0.0896
      6 C         145.6300  141.8671  163.1650 C.3     1  UNL1        0.0768
      7 C         145.3687  140.7319  164.1100 C.3     1  UNL1        0.0438
      8 C         141.9273  137.9300  163.3644 C.ar    1  UNL1        0.1724
      9 C         142.1925  138.4402  164.7498 C.ar    1  UNL1        0.0397
     10 C         143.3396  139.3742  164.9983 C.ar    1  UNL1       -0.0009
     11 C         144.2216  139.7980  163.8615 C.ar    1  UNL1       -0.0176
     12 C         143.9564  139.2878  162.4761 C.ar    1  UNL1        0.0358
     13 C         142.8093  138.3538  162.2275 C.ar    1  UNL1        0.1721
     14 C         139.3792  137.5285  163.0550 C.3     1  UNL1        0.2526
     15 O         140.7802  136.9961  163.1158 O.3     1  UNL1       -0.4684
     16 O         142.5442  137.8437  160.8420 O.3     1  UNL1       -0.4684
     17 C         141.5392  138.5339  159.9682 C.3     1  UNL1        0.2526
     18 C         140.4054  143.1962  164.4971 C.3     1  UNL1        0.0981
     19 C         140.2173  142.3144  165.6959 C.ar    1  UNL1       -0.0065
     20 C         140.5901  142.8139  167.0603 C.ar    1  UNL1        0.0000
     21 C         140.4020  141.9321  168.2590 C.ar    1  UNL1        0.0398
     22 C         139.8412  140.5508  168.0935 C.ar    1  UNL1        0.1724
     23 C         139.4684  140.0513  166.7291 C.ar    1  UNL1        0.1721
     24 C         139.6565  140.9331  165.5303 C.ar    1  UNL1        0.0367
     25 O         139.6531  139.6690  169.2922 O.3     1  UNL1       -0.4684
     26 C         140.1640  140.1067  170.6328 C.3     1  UNL1        0.2526
     27 O         138.9075  138.6700  166.5635 O.3     1  UNL1       -0.4684
     28 C         137.5149  138.3650  167.0301 C.3     1  UNL1        0.2526
     29 C         139.0135  143.7279  164.6698 C.3     1  UNL1        0.0169
     30 C         138.7745  144.9436  165.5152 C.3     1  UNL1        0.0014
     31 C         137.8605  143.0437  163.9970 C.3     1  UNL1        0.0014
     32 C         140.5935  144.0780  163.2984 C.1     1  UNL1        0.0752
     33 N         140.7816  144.9598  162.0996 N.1     1  UNL1       -0.1956
@<TRIPOS>BOND
     1    14    15    1
     2    15     8    1
     3     8     9   ar
     4     9    10   ar
     5    10    11   ar
     6    11     7    1
     7     7     6    1
     8     6     4    1
     9     4     5    1
    10     4     3    1
    11     3     2    1
    12     2     1    1
    13     1    18    1
    14    18    32    1
    15    32    33    3
    16    18    19    1
    17    19    20   ar
    18    20    21   ar
    19    21    22   ar
    20    22    25    1
    21    25    26    1
    22    22    23   ar
    23    23    27    1
    24    27    28    1
    25    23    24   ar
    26    18    29    1
    27    29    30    1
    28    29    31    1
    29    11    12   ar
    30    12    13   ar
    31    13    16    1
    32    16    17    1
    33    13     8   ar
    34    24    19   ar
@<TRIPOS>MOLECULE
*****
 33 34 0 0 0
SMALL
GASTEIGER

@<TRIPOS>ATOM
      1 C         139.5533  140.1471  167.0110 C.3     1  UNL1        0.0197
      2 C         138.5076  139.0773  167.1210 C.3     1  UNL1        0.0187
      3 C         138.4487  137.9784  166.1017 C.3     1  UNL1        0.0722
      4 N         139.2362  138.0919  164.8302 N.3     1  UNL1       -0.2712
      5 C         140.5617  137.4009  164.7046 C.3     1  UNL1        0.0896
      6 C         138.6983  138.8964  163.6841 C.3     1  UNL1        0.0768
      7 C         137.6533  139.9443  163.9286 C.3     1  UNL1        0.0438
      8 C         138.3307  144.1670  162.5285 C.ar    1  UNL1        0.1724
      9 C         138.1648  143.8793  163.9912 C.ar    1  UNL1        0.0397
     10 C         137.9390  142.4718  164.4579 C.ar    1  UNL1       -0.0009
     11 C         137.8791  141.3519  163.4619 C.ar    1  UNL1       -0.0176
     12 C         138.0450  141.6395  161.9991 C.ar    1  UNL1        0.0358
     13 C         138.2708  143.0471  161.5324 C.ar    1  UNL1        0.1721
     14 C         139.9510  146.1193  161.9689 C.3     1  UNL1        0.2526
     15 O         138.5565  145.5745  162.0618 O.3     1  UNL1       -0.4684
     16 O         138.4368  143.3347  160.0696 O.3     1  UNL1       -0.4684
     17 C         139.8078  143.3652  159.4620 C.3     1  UNL1        0.2526
     18 C         140.6471  140.2348  168.0337 C.3     1  UNL1        0.0981
     19 C         141.6694  140.2764  166.9368 C.ar    1  UNL1       -0.0065
     20 C         142.6947  139.1873  166.8254 C.ar    1  UNL1        0.0000
     21 C         143.7170  139.2290  165.7284 C.ar    1  UNL1        0.0398
     22 C         143.7139  140.3597  164.7429 C.ar    1  UNL1        0.1724
     23 C         142.6886  141.4489  164.8543 C.ar    1  UNL1        0.1721
     24 C         141.6663  141.4072  165.9512 C.ar    1  UNL1        0.0367
     25 O         144.7362  140.4014  163.6460 O.3     1  UNL1       -0.4684
     26 C         145.7930  141.4658  163.6458 C.3     1  UNL1        0.2526
     27 O         142.6855  142.5797  163.8688 O.3     1  UNL1       -0.4684
     28 C         141.6893  142.5946  162.7475 C.3     1  UNL1        0.2526
     29 C         141.7409  140.3225  169.0564 C.3     1  UNL1        0.0169
     30 C         142.0889  139.1230  169.8871 C.3     1  UNL1        0.0014
     31 C         142.4867  141.6098  169.2483 C.3     1  UNL1        0.0014
     32 C         139.6248  140.1931  169.1306 C.1     1  UNL1        0.0752
     33 N         138.6025  140.1515  170.2275 N.1     1  UNL1       -0.1956
@<TRIPOS>BOND
     1    14    15    1
     2    15     8    1
     3     8     9   ar
     4     9    10   ar
     5    10    11   ar
     6    11     7    1
     7     7     6    1
     8     6     4    1
     9     4     5    1
    10     4     3    1
    11     3     2    1
    12     2     1    1
    13     1    18    1
    14    18    32    1
    15    32    33    3
    16    18    19    1
    17    19    20   ar
    18    20    21   ar
    19    21    22   ar
    20    22    25    1
    21    25    26    1
    22    22    23   ar
    23    23    27    1
    24    27    28    1
    25    23    24   ar
    26    18    29    1
    27    29    30    1
    28    29    31    1
    29    11    12   ar
    30    12    13   ar
    31    13    16    1
    32    16    17    1
    33    13     8   ar
    34    24    19   ar
@<TRIPOS>MOLECULE
*****
 33 34 0 0 0
SMALL
GASTEIGER

@<TRIPOS>ATOM
      1 C         139.8921  141.3527  163.6313 C.3     1  UNL1        0.0197
      2 C         138.5626  140.6610  163.5691 C.3     1  UNL1        0.0187
      3 C         138.4878  139.1676  163.6880 C.3     1  UNL1        0.0722
      4 N         138.9446  138.4916  164.9467 N.3     1  UNL1       -0.2712
      5 C         138.2217  138.7416  166.2371 C.3     1  UNL1        0.0896
      6 C         140.1242  137.5657  164.9152 C.3     1  UNL1        0.0768
      7 C         141.5163  138.1242  164.9163 C.3     1  UNL1        0.0438
      8 C         143.5652  139.0681  161.0226 C.ar    1  UNL1        0.1724
      9 C         142.4614  138.0532  161.0625 C.ar    1  UNL1        0.0397
     10 C         141.7785  137.7385  162.3605 C.ar    1  UNL1       -0.0009
     11 C         142.1993  138.4388  163.6184 C.ar    1  UNL1       -0.0176
     12 C         143.3030  139.4538  163.5784 C.ar    1  UNL1        0.0358
     13 C         143.9859  139.7684  162.2805 C.ar    1  UNL1        0.1721
     14 C         143.4378  139.7942  158.5313 C.3     1  UNL1        0.2526
     15 O         144.2481  139.3828  159.7246 O.3     1  UNL1       -0.4684
     16 O         145.0897  140.7834  162.2406 O.3     1  UNL1       -0.4684
     17 C         145.6288  141.3558  163.5179 C.3     1  UNL1        0.2526
     18 C         139.9658  142.8039  164.0036 C.3     1  UNL1        0.0981
     19 C         140.7365  142.4475  165.2402 C.ar    1  UNL1       -0.0065
     20 C         142.2287  142.3073  165.1795 C.ar    1  UNL1        0.0000
     21 C         142.9993  141.9509  166.4161 C.ar    1  UNL1        0.0398
     22 C         142.2779  141.7346  167.7132 C.ar    1  UNL1        0.1724
     23 C         140.7857  141.8748  167.7738 C.ar    1  UNL1        0.1721
     24 C         140.0150  142.2312  166.5373 C.ar    1  UNL1        0.0367
     25 O         143.0486  141.3782  168.9497 O.3     1  UNL1       -0.4684
     26 C         143.8127  142.4367  169.6884 C.3     1  UNL1        0.2526
     27 O         140.0641  141.6585  169.0710 O.3     1  UNL1       -0.4684
     28 C         139.4597  140.3208  169.3791 C.3     1  UNL1        0.2526
     29 C         140.0395  144.2551  164.3760 C.3     1  UNL1        0.0169
     30 C         138.9383  144.8799  165.1802 C.3     1  UNL1        0.0014
     31 C         141.2146  145.0814  163.9441 C.3     1  UNL1        0.0014
     32 C         139.1951  143.1603  162.7671 C.1     1  UNL1        0.0752
     33 N         138.4244  143.5167  161.5306 N.1     1  UNL1       -0.1956
@<TRIPOS>BOND
     1    14    15    1
     2    15     8    1
     3     8     9   ar
     4     9    10   ar
     5    10    11   ar
     6    11     7    1
     7     7     6    1
     8     6     4    1
     9     4     5    1
    10     4     3    1
    11     3     2    1
    12     2     1    1
    13     1    18    1
    14    18    32    1
    15    32    33    3
    16    18    19    1
    17    19    20   ar
    18    20    21   ar
    19    21    22   ar
    20    22    25    1
    21    25    26    1
    22    22    23   ar
    23    23    27    1
    24    27    28    1
    25    23    24   ar
    26    18    29    1
    27    29    30    1
    28    29    31    1
    29    11    12   ar
    30    12    13   ar
    31    13    16    1
    32    16    17    1
    33    13     8   ar
    34    24    19   ar
@<TRIPOS>MOLECULE
*****
 33 34 0 0 0
SMALL
GASTEIGER

@<TRIPOS>ATOM
      1 C         141.7777  141.6076  163.1011 C.3     1  UNL1        0.0197
      2 C         141.5225  142.9841  162.5627 C.3     1  UNL1        0.0187
      3 C         141.3325  144.1350  163.5058 C.3     1  UNL1        0.0722
      4 N         140.0808  144.9590  163.4410 N.3     1  UNL1       -0.2712
      5 C         139.8233  145.8398  162.2543 C.3     1  UNL1        0.0896
      6 C         139.0867  144.9024  164.5628 C.3     1  UNL1        0.0768
      7 C         137.8469  144.0695  164.4248 C.3     1  UNL1        0.0438
      8 C         138.1434  139.8129  162.9954 C.ar    1  UNL1        0.1724
      9 C         138.3097  140.1280  164.4524 C.ar    1  UNL1        0.0397
     10 C         138.2109  141.5469  164.9289 C.ar    1  UNL1       -0.0009
     11 C         137.9457  142.6506  163.9484 C.ar    1  UNL1       -0.0176
     12 C         137.7794  142.3354  162.4913 C.ar    1  UNL1        0.0358
     13 C         137.8782  140.9166  162.0148 C.ar    1  UNL1        0.1721
     14 C         139.4297  137.5579  162.8939 C.3     1  UNL1        0.2526
     15 O         138.2422  138.3940  162.5189 O.3     1  UNL1       -0.4684
     16 O         137.7119  140.6014  160.5577 O.3     1  UNL1       -0.4684
     17 C         138.4738  141.3838  159.5295 C.3     1  UNL1        0.2526
     18 C         143.1553  141.2222  163.5522 C.3     1  UNL1        0.0981
     19 C         142.6248  140.9332  164.9252 C.ar    1  UNL1       -0.0065
     20 C         141.8223  139.6904  165.1729 C.ar    1  UNL1        0.0000
     21 C         141.2919  139.4014  166.5459 C.ar    1  UNL1        0.0398
     22 C         141.5638  140.3552  167.6712 C.ar    1  UNL1        0.1724
     23 C         142.3663  141.5980  167.4234 C.ar    1  UNL1        0.1721
     24 C         142.8968  141.8870  166.0505 C.ar    1  UNL1        0.0367
     25 O         141.0333  140.0662  169.0441 O.3     1  UNL1       -0.4684
     26 C         139.5991  140.3594  169.3711 C.3     1  UNL1        0.2526
     27 O         142.6384  142.5519  168.5487 O.3     1  UNL1       -0.4684
     28 C         143.7459  142.2696  169.5200 C.3     1  UNL1        0.2526
     29 C         144.5330  140.8368  164.0034 C.3     1  UNL1        0.0169
     30 C         144.8400  139.4073  164.3384 C.3     1  UNL1        0.0014
     31 C         145.6036  141.8810  164.1196 C.3     1  UNL1        0.0014
     32 C         143.6858  141.5112  162.1793 C.1     1  UNL1        0.0752
     33 N         144.2163  141.8002  160.8063 N.1     1  UNL1       -0.1956
@<TRIPOS>BOND
     1    14    15    1
     2    15     8    1
     3     8     9   ar
     4     9    10   ar
     5    10    11   ar
     6    11     7    1
     7     7     6    1
     8     6     4    1
     9     4     5    1
    10     4     3    1
    11     3     2    1
    12     2     1    1
    13     1    18    1
    14    18    32    1
    15    32    33    3
    16    18    19    1
    17    19    20   ar
    18    20    21   ar
    19    21    22   ar
    20    22    25    1
    21    25    26    1
    22    22    23   ar
    23    23    27    1
    24    27    28    1
    25    23    24   ar
    26    18    29    1
    27    29    30    1
    28    29    31    1
    29    11    12   ar
    30    12    13   ar
    31    13    16    1
    32    16    17    1
    33    13     8   ar
    34    24    19   ar
@<TRIPOS>MOLECULE
*****
 33 34 0 0 0
SMALL
GASTEIGER

@<TRIPOS>ATOM
      1 C         141.5654  142.8860  163.8551 C.3     1  UNL1        0.0197
      2 C         141.4181  144.3620  164.0780 C.3     1  UNL1        0.0187
      3 C         140.0518  144.9710  164.1892 C.3     1  UNL1        0.0722
      4 N         139.1516  145.0178  162.9903 N.3     1  UNL1       -0.2712
      5 C         139.5202  145.8647  161.8082 C.3     1  UNL1        0.0896
      6 C         137.8829  144.2178  162.9733 C.3     1  UNL1        0.0768
      7 C         137.6613  143.1413  163.9941 C.3     1  UNL1        0.0438
      8 C         139.0709  138.9457  163.1819 C.ar    1  UNL1        0.1724
      9 C         139.2233  140.0048  162.1307 C.ar    1  UNL1        0.0397
     10 C         138.7534  141.4033  162.4014 C.ar    1  UNL1       -0.0009
     11 C         138.1312  141.7428  163.7233 C.ar    1  UNL1       -0.0176
     12 C         137.9788  140.6837  164.7746 C.ar    1  UNL1        0.0358
     13 C         138.4487  139.2852  164.5038 C.ar    1  UNL1        0.1721
     14 C         140.9603  137.1626  163.2061 C.3     1  UNL1        0.2526
     15 O         139.5408  137.5472  162.9112 O.3     1  UNL1       -0.4684
     16 O         138.2963  138.2261  165.5551 O.3     1  UNL1       -0.4684
     17 C         137.7706  138.5871  166.9128 C.3     1  UNL1        0.2526
     18 C         142.9196  142.2463  163.9388 C.3     1  UNL1        0.0981
     19 C         142.5384  141.6096  165.2423 C.ar    1  UNL1       -0.0065
     20 C         141.9554  140.2277  165.2599 C.ar    1  UNL1        0.0000
     21 C         141.5742  139.5910  166.5635 C.ar    1  UNL1        0.0398
     22 C         141.7759  140.3363  167.8495 C.ar    1  UNL1        0.1724
     23 C         142.3588  141.7182  167.8319 C.ar    1  UNL1        0.1721
     24 C         142.7401  142.3549  166.5283 C.ar    1  UNL1        0.0367
     25 O         141.3946  139.6996  169.1530 O.3     1  UNL1       -0.4684
     26 C         142.4302  138.9855  169.9701 C.3     1  UNL1        0.2526
     27 O         142.5606  142.4635  169.1180 O.3     1  UNL1       -0.4684
     28 C         143.8741  142.3767  169.8370 C.3     1  UNL1        0.2526
     29 C         144.2738  141.6067  164.0224 C.3     1  UNL1        0.0169
     30 C         144.4557  140.1782  163.6024 C.3     1  UNL1        0.0014
     31 C         145.4461  142.3955  164.5260 C.3     1  UNL1        0.0014
     32 C         143.3008  142.8830  162.6352 C.1     1  UNL1        0.0752
     33 N         143.6821  143.5197  161.3316 N.1     1  UNL1       -0.1956
@<TRIPOS>BOND
     1    14    15    1
     2    15     8    1
     3     8     9   ar
     4     9    10   ar
     5    10    11   ar
     6    11     7    1
     7     7     6    1
     8     6     4    1
     9     4     5    1
    10     4     3    1
    11     3     2    1
    12     2     1    1
    13     1    18    1
    14    18    32    1
    15    32    33    3
    16    18    19    1
    17    19    20   ar
    18    20    21   ar
    19    21    22   ar
    20    22    25    1
    21    25    26    1
    22    22    23   ar
    23    23    27    1
    24    27    28    1
    25    23    24   ar
    26    18    29    1
    27    29    30    1
    28    29    31    1
    29    11    12   ar
    30    12    13   ar
    31    13    16    1
    32    16    17    1
    33    13     8   ar
    34    24    19   ar
@<TRIPOS>MOLECULE
*****
 33 34 0 0 0
SMALL
GASTEIGER

@<TRIPOS>ATOM
      1 C         139.6822  141.2918  163.8704 C.3     1  UNL1        0.0197
      2 C         138.3446  140.6145  163.9147 C.3     1  UNL1        0.0187
      3 C         138.1535  139.2870  163.2429 C.3     1  UNL1        0.0722
      4 N         138.3644  139.1579  161.7634 N.3     1  UNL1       -0.2712
      5 C         137.4741  139.9002  160.8113 C.3     1  UNL1        0.0896
      6 C         139.4655  138.2865  161.2360 C.3     1  UNL1        0.0768
      7 C         140.4992  137.7348  162.1725 C.3     1  UNL1        0.0438
      8 C         144.3097  140.0115  162.9117 C.ar    1  UNL1        0.1724
      9 C         143.5624  140.1978  161.6246 C.ar    1  UNL1        0.0397
     10 C         142.2922  139.4389  161.3782 C.ar    1  UNL1       -0.0009
     11 C         141.7694  138.4937  162.4189 C.ar    1  UNL1       -0.0176
     12 C         142.5167  138.3073  163.7060 C.ar    1  UNL1        0.0358
     13 C         143.7869  139.0662  163.9524 C.ar    1  UNL1        0.1721
     14 C         145.5379  142.0948  163.8610 C.3     1  UNL1        0.2526
     15 O         145.5799  140.7704  163.1581 O.3     1  UNL1       -0.4684
     16 O         144.5342  138.8799  165.2396 O.3     1  UNL1       -0.4684
     17 C         143.8777  138.1823  166.3938 C.3     1  UNL1        0.2526
     18 C         139.7846  142.7668  164.1232 C.3     1  UNL1        0.0981
     19 C         140.6282  142.5006  165.3346 C.ar    1  UNL1       -0.0065
     20 C         142.0420  142.0258  165.1744 C.ar    1  UNL1        0.0000
     21 C         142.8856  141.7597  166.3858 C.ar    1  UNL1        0.0398
     22 C         142.3154  141.9683  167.7574 C.ar    1  UNL1        0.1724
     23 C         140.9016  142.4431  167.9176 C.ar    1  UNL1        0.1721
     24 C         140.0580  142.7093  166.7062 C.ar    1  UNL1        0.0367
     25 O         143.1590  141.7021  168.9688 O.3     1  UNL1       -0.4684
     26 C         142.9158  140.4756  169.7973 C.3     1  UNL1        0.2526
     27 O         140.3313  142.6518  169.2892 O.3     1  UNL1       -0.4684
     28 C         140.4551  143.9889  169.9575 C.3     1  UNL1        0.2526
     29 C         139.8871  144.2418  164.3759 C.3     1  UNL1        0.0169
     30 C         138.7854  144.9569  165.1003 C.3     1  UNL1        0.0014
     31 C         141.0913  145.0017  163.9042 C.3     1  UNL1        0.0014
     32 C         138.9410  143.0330  162.9118 C.1     1  UNL1        0.0752
     33 N         138.0975  143.2992  161.7003 N.1     1  UNL1       -0.1956
@<TRIPOS>BOND
     1    14    15    1
     2    15     8    1
     3     8     9   ar
     4     9    10   ar
     5    10    11   ar
     6    11     7    1
     7     7     6    1
     8     6     4    1
     9     4     5    1
    10     4     3    1
    11     3     2    1
    12     2     1    1
    13     1    18    1
    14    18    32    1
    15    32    33    3
    16    18    19    1
    17    19    20   ar
    18    20    21   ar
    19    21    22   ar
    20    22    25    1
    21    25    26    1
    22    22    23   ar
    23    23    27    1
    24    27    28    1
    25    23    24   ar
    26    18    29    1
    27    29    30    1
    28    29    31    1
    29    11    12   ar
    30    12    13   ar
    31    13    16    1
    32    16    17    1
    33    13     8   ar
    34    24    19   ar
@<TRIPOS>MOLECULE
*****
 33 34 0 0 0
SMALL
GASTEIGER

@<TRIPOS>ATOM
      1 C         142.6551  140.2847  164.6967 C.3     1  UNL1        0.0197
      2 C         144.0684  140.0380  164.2590 C.3     1  UNL1        0.0187
      3 C         144.4757  140.3227  162.8437 C.3     1  UNL1        0.0722
      4 N         143.9402  139.4791  161.7250 N.3     1  UNL1       -0.2712
      5 C         143.7589  140.0720  160.3591 C.3     1  UNL1        0.0896
      6 C         143.5860  138.0426  161.9721 C.3     1  UNL1        0.0768
      7 C         142.1860  137.5627  161.7282 C.3     1  UNL1        0.0438
      8 C         138.8912  138.6945  164.5765 C.ar    1  UNL1        0.1724
      9 C         139.9352  137.7017  164.9939 C.ar    1  UNL1        0.0397
     10 C         141.0335  137.3244  164.0444 C.ar    1  UNL1       -0.0009
     11 C         141.0877  137.9400  162.6777 C.ar    1  UNL1       -0.0176
     12 C         140.0437  138.9328  162.2603 C.ar    1  UNL1        0.0358
     13 C         138.9454  139.3101  163.2098 C.ar    1  UNL1        0.1721
     14 C         137.7313  138.4467  166.8881 C.3     1  UNL1        0.2526
     15 O         137.7929  139.0718  165.5260 O.3     1  UNL1       -0.4684
     16 O         137.9013  140.3030  162.7924 O.3     1  UNL1       -0.4684
     17 C         137.5826  140.4898  161.3386 C.3     1  UNL1        0.2526
     18 C         142.3810  141.1261  165.9079 C.3     1  UNL1        0.0981
     19 C         141.9808  142.2693  165.0232 C.ar    1  UNL1       -0.0065
     20 C         142.9249  143.4140  164.8036 C.ar    1  UNL1        0.0000
     21 C         142.5247  144.5573  163.9189 C.ar    1  UNL1        0.0398
     22 C         141.1802  144.5558  163.2537 C.ar    1  UNL1        0.1724
     23 C         140.2361  143.4112  163.4732 C.ar    1  UNL1        0.1721
     24 C         140.6364  142.2679  164.3580 C.ar    1  UNL1        0.0367
     25 O         140.7800  145.6991  162.3689 O.3     1  UNL1       -0.4684
     26 C         140.6365  145.4889  160.8907 C.3     1  UNL1        0.2526
     27 O         138.8916  143.4097  162.8080 O.3     1  UNL1       -0.4684
     28 C         137.7532  144.1742  163.4159 C.3     1  UNL1        0.2526
     29 C         142.1070  141.9675  167.1191 C.3     1  UNL1        0.0169
     30 C         140.7015  142.3780  167.4448 C.3     1  UNL1        0.0014
     31 C         143.2385  142.3983  168.0046 C.3     1  UNL1        0.0014
     32 C         142.7813  139.9828  166.7926 C.1     1  UNL1        0.0752
     33 N         143.1815  138.8396  167.6774 N.1     1  UNL1       -0.1956
@<TRIPOS>BOND
     1    14    15    1
     2    15     8    1
     3     8     9   ar
     4     9    10   ar
     5    10    11   ar
     6    11     7    1
     7     7     6    1
     8     6     4    1
     9     4     5    1
    10     4     3    1
    11     3     2    1
    12     2     1    1
    13     1    18    1
    14    18    32    1
    15    32    33    3
    16    18    19    1
    17    19    20   ar
    18    20    21   ar
    19    21    22   ar
    20    22    25    1
    21    25    26    1
    22    22    23   ar
    23    23    27    1
    24    27    28    1
    25    23    24   ar
    26    18    29    1
    27    29    30    1
    28    29    31    1
    29    11    12   ar
    30    12    13   ar
    31    13    16    1
    32    16    17    1
    33    13     8   ar
    34    24    19   ar
@<TRIPOS>MOLECULE
*****
 33 34 0 0 0
SMALL
GASTEIGER

@<TRIPOS>ATOM
      1 C         143.0116  140.5883  163.8022 C.3     1  UNL1        0.0197
      2 C         141.8666  140.2139  162.9085 C.3     1  UNL1        0.0187
      3 C         141.2982  138.8267  162.9590 C.3     1  UNL1        0.0722
      4 N         140.1592  138.5162  163.8842 N.3     1  UNL1       -0.2712
      5 C         140.2951  138.7770  165.3552 C.3     1  UNL1        0.0896
      6 C         138.8841  137.9449  163.3386 C.3     1  UNL1        0.0768
      7 C         138.0996  138.7070  162.3120 C.3     1  UNL1        0.0438
      8 C         137.9663  143.2024  162.4635 C.ar    1  UNL1        0.1724
      9 C         137.6976  142.4019  163.7032 C.ar    1  UNL1        0.0397
     10 C         137.7420  140.9035  163.6527 C.ar    1  UNL1       -0.0009
     11 C         138.0552  140.2055  162.3625 C.ar    1  UNL1       -0.0176
     12 C         138.3239  141.0060  161.1228 C.ar    1  UNL1        0.0358
     13 C         138.2794  142.5045  161.1732 C.ar    1  UNL1        0.1721
     14 C         139.1964  145.4908  162.4765 C.3     1  UNL1        0.2526
     15 O         137.9218  144.7009  162.5139 O.3     1  UNL1       -0.4684
     16 O         138.5481  143.3050  159.9334 O.3     1  UNL1       -0.4684
     17 C         138.5305  142.6367  158.5907 C.3     1  UNL1        0.2526
     18 C         143.2957  142.0324  164.0921 C.3     1  UNL1        0.0981
     19 C         142.4685  141.9446  165.3403 C.ar    1  UNL1       -0.0065
     20 C         141.1393  142.6363  165.4094 C.ar    1  UNL1        0.0000
     21 C         140.3121  142.5484  166.6576 C.ar    1  UNL1        0.0398
     22 C         140.8141  141.7689  167.8367 C.ar    1  UNL1        0.1724
     23 C         142.1432  141.0772  167.7676 C.ar    1  UNL1        0.1721
     24 C         142.9704  141.1651  166.5194 C.ar    1  UNL1        0.0367
     25 O         139.9869  141.6811  169.0849 O.3     1  UNL1       -0.4684
     26 C         139.2538  140.4138  169.4112 C.3     1  UNL1        0.2526
     27 O         142.6453  140.2977  168.9467 O.3     1  UNL1       -0.4684
     28 C         143.2643  141.0134  170.1105 C.3     1  UNL1        0.2526
     29 C         143.5798  143.4764  164.3819 C.3     1  UNL1        0.0169
     30 C         144.5431  143.8476  165.4701 C.3     1  UNL1        0.0014
     31 C         142.9004  144.5494  163.5836 C.3     1  UNL1        0.0014
     32 C         144.1229  142.1202  162.8439 C.1     1  UNL1        0.0752
     33 N         144.9501  142.2080  161.5957 N.1     1  UNL1       -0.1956
@<TRIPOS>BOND
     1    14    15    1
     2    15     8    1
     3     8     9   ar
     4     9    10   ar
     5    10    11   ar
     6    11     7    1
     7     7     6    1
     8     6     4    1
     9     4     5    1
    10     4     3    1
    11     3     2    1
    12     2     1    1
    13     1    18    1
    14    18    32    1
    15    32    33    3
    16    18    19    1
    17    19    20   ar
    18    20    21   ar
    19    21    22   ar
    20    22    25    1
    21    25    26    1
    22    22    23   ar
    23    23    27    1
    24    27    28    1
    25    23    24   ar
    26    18    29    1
    27    29    30    1
    28    29    31    1
    29    11    12   ar
    30    12    13   ar
    31    13    16    1
    32    16    17    1
    33    13     8   ar
    34    24    19   ar
