@<TRIPOS>MOLECULE
*****
 34 37 0 0 0
SMALL
GASTEIGER

@<TRIPOS>ATOM
      1 N         144.6116  142.4790  163.2946 N.3     1  UNL1       -0.2673
      2 C         144.0570  143.3979  164.3424 C.3     1  UNL1        0.1035
      3 C         142.9093  144.3056  164.0124 C.3     1  UNL1        0.1470
      4 C         141.7616  145.2134  163.6824 C.3     1  UNL1        0.1035
      5 N         141.1685  145.2020  162.3047 N.3     1  UNL1       -0.2682
      6 C         141.7232  144.2830  161.2569 C.3     1  UNL1        0.1035
      7 C         142.8709  143.3753  161.5869 C.3     1  UNL1        0.1470
      8 C         144.0185  142.4676  161.9169 C.3     1  UNL1        0.1035
      9 O         142.3163  144.2943  162.6346 O.3     1  UNL1       -0.3530
     10 C         145.7593  141.5712  163.6246 C.3     1  UNL1        0.0916
     11 C         145.4973  140.2000  164.1732 C.3     1  UNL1        0.1131
     12 C         143.8332  138.8378  162.7155 C.3     1  UNL1        0.1149
     13 N         144.1518  139.5630  163.9892 N.3     1  UNL1       -0.1526
     14 S         143.1248  139.6514  165.0790 S.O2    1  UNL1        0.0634
     15 O         142.2491  140.4801  164.1867 O.2     1  UNL1       -0.1528
     16 O         144.0006  138.8226  165.9714 O.2     1  UNL1       -0.1528
     17 C         142.0979  139.7397  166.1688 C.ar    1  UNL1        0.1222
     18 C         140.6376  139.7114  165.8274 C.ar    1  UNL1        0.0206
     19 C         139.6107  139.7997  166.9172 C.ar    1  UNL1        0.0116
     20 C         140.0441  139.9163  168.3484 C.ar    1  UNL1        0.0685
     21 C         141.5045  139.9447  168.6899 C.ar    1  UNL1        0.0116
     22 C         142.5314  139.8563  167.6001 C.ar    1  UNL1        0.0206
     23 C         139.0172  140.0047  169.4382 C.1     1  UNL1        0.1004
     24 N         137.9903  140.0930  170.5280 N.1     1  UNL1       -0.1908
     25 C         140.0209  146.1097  161.9747 C.3     1  UNL1        0.0769
     26 C         138.6106  145.6347  162.1636 C.3     1  UNL1        0.0437
     27 C         138.3481  144.2544  162.6886 C.ar    1  UNL1       -0.0184
     28 C         138.3057  144.0101  164.1679 C.ar    1  UNL1       -0.0018
     29 C         138.0432  142.6297  164.6930 C.ar    1  UNL1        0.0316
     30 C         137.8231  141.4936  163.7386 C.ar    1  UNL1        0.1674
     31 F         137.5606  140.1132  164.2636 F       1  UNL1       -0.2018
     32 C         137.8655  141.7379  162.2592 C.ar    1  UNL1        0.1671
     33 F         137.6454  140.6018  161.3048 F       1  UNL1       -0.2018
     34 C         138.1280  143.1183  161.7342 C.ar    1  UNL1        0.0277
@<TRIPOS>BOND
     1    12    13    1
     2    13    11    1
     3    11    10    1
     4    10     1    1
     5     1     2    1
     6     2     3    1
     7     3     4    1
     8     4     5    1
     9     5    25    1
    10    25    26    1
    11    26    27    1
    12    27    28   ar
    13    28    29   ar
    14    29    30   ar
    15    30    31    1
    16    30    32   ar
    17    32    33    1
    18    32    34   ar
    19     5     6    1
    20     6     7    1
    21     7     8    1
    22     7     9    1
    23    13    14    1
    24    14    15    2
    25    14    16    2
    26    14    17    1
    27    17    18   ar
    28    18    19   ar
    29    19    20   ar
    30    20    23    1
    31    23    24    3
    32    20    21   ar
    33    21    22   ar
    34     8     1    1
    35    22    17   ar
    36     9     3    1
    37    34    27   ar
@<TRIPOS>MOLECULE
*****
 34 37 0 0 0
SMALL
GASTEIGER

@<TRIPOS>ATOM
      1 N         142.1511  139.3644  159.4647 N.3     1  UNL1       -0.2673
      2 C         142.8255  140.6754  159.1884 C.3     1  UNL1        0.1035
      3 C         143.7270  141.2870  160.2196 C.3     1  UNL1        0.1470
      4 C         144.6285  141.8987  161.2507 C.3     1  UNL1        0.1035
      5 N         144.8556  141.1992  162.5580 N.3     1  UNL1       -0.2682
      6 C         144.1813  139.8881  162.8342 C.3     1  UNL1        0.1035
      7 C         143.2798  139.2765  161.8031 C.3     1  UNL1        0.1470
      8 C         142.3783  138.6649  160.7720 C.3     1  UNL1        0.1035
      9 O         143.9541  140.5875  161.5269 O.3     1  UNL1       -0.3530
     10 C         141.2496  138.7527  158.4335 C.3     1  UNL1        0.0916
     11 C         139.8456  138.3699  158.7971 C.3     1  UNL1        0.1131
     12 C         138.2131  140.3879  158.6863 C.3     1  UNL1        0.1149
     13 N         138.9535  139.3586  159.4876 N.3     1  UNL1       -0.1526
     14 S         138.8019  139.3178  160.9793 S.O2    1  UNL1        0.0634
     15 O         138.5929  140.8031  160.9987 O.2     1  UNL1       -0.1528
     16 O         139.0109  137.8326  160.9600 O.2     1  UNL1       -0.1528
     17 C         138.6503  139.2771  162.4711 C.ar    1  UNL1        0.1222
     18 C         138.9802  138.0227  163.2245 C.ar    1  UNL1        0.0206
     19 C         138.8285  137.9820  164.7163 C.ar    1  UNL1        0.0116
     20 C         138.3470  139.1956  165.4546 C.ar    1  UNL1        0.0685
     21 C         138.0171  140.4501  164.7012 C.ar    1  UNL1        0.0116
     22 C         138.1687  140.4908  163.2094 C.ar    1  UNL1        0.0206
     23 C         138.1954  139.1549  166.9464 C.1     1  UNL1        0.1004
     24 N         138.0438  139.1141  168.4381 N.1     1  UNL1       -0.1908
     25 C         145.7571  141.8108  163.5891 C.3     1  UNL1        0.0769
     26 C         145.1774  142.6488  164.6900 C.3     1  UNL1        0.0437
     27 C         143.8319  143.2887  164.5163 C.ar    1  UNL1       -0.0184
     28 C         143.6978  144.5455  163.7086 C.ar    1  UNL1       -0.0018
     29 C         142.3522  145.1854  163.5349 C.ar    1  UNL1        0.0316
     30 C         141.1409  144.5684  164.1690 C.ar    1  UNL1        0.1674
     31 F         139.7954  145.2083  163.9954 F       1  UNL1       -0.2018
     32 C         141.2751  143.3116  164.9768 C.ar    1  UNL1        0.1671
     33 F         140.0638  142.6946  165.6108 F       1  UNL1       -0.2018
     34 C         142.6206  142.6717  165.1504 C.ar    1  UNL1        0.0277
@<TRIPOS>BOND
     1    12    13    1
     2    13    11    1
     3    11    10    1
     4    10     1    1
     5     1     2    1
     6     2     3    1
     7     3     4    1
     8     4     5    1
     9     5    25    1
    10    25    26    1
    11    26    27    1
    12    27    28   ar
    13    28    29   ar
    14    29    30   ar
    15    30    31    1
    16    30    32   ar
    17    32    33    1
    18    32    34   ar
    19     5     6    1
    20     6     7    1
    21     7     8    1
    22     7     9    1
    23    13    14    1
    24    14    15    2
    25    14    16    2
    26    14    17    1
    27    17    18   ar
    28    18    19   ar
    29    19    20   ar
    30    20    23    1
    31    23    24    3
    32    20    21   ar
    33    21    22   ar
    34     8     1    1
    35    22    17   ar
    36     9     3    1
    37    34    27   ar
@<TRIPOS>MOLECULE
*****
 34 37 0 0 0
SMALL
GASTEIGER

@<TRIPOS>ATOM
      1 N         143.0649  143.3183  161.8643 N.3     1  UNL1       -0.2673
      2 C         141.7409  144.0166  161.9599 C.3     1  UNL1        0.1035
      3 C         140.5090  143.3683  161.4012 C.3     1  UNL1        0.1470
      4 C         139.2770  142.7200  160.8425 C.3     1  UNL1        0.1035
      5 N         139.3692  141.3734  160.1883 N.3     1  UNL1       -0.2682
      6 C         140.6933  140.6750  160.0928 C.3     1  UNL1        0.1035
      7 C         141.9252  141.3233  160.6515 C.3     1  UNL1        0.1470
      8 C         143.1571  141.9716  161.2101 C.3     1  UNL1        0.1035
      9 O         140.6012  142.0217  160.7470 O.3     1  UNL1       -0.3530
     10 C         144.2969  143.9666  162.4230 C.3     1  UNL1        0.0916
     11 C         144.7070  143.7005  163.8411 C.3     1  UNL1        0.1131
     12 C         145.6905  141.2978  163.9416 C.3     1  UNL1        0.1149
     13 N         144.6680  142.3024  164.3834 N.3     1  UNL1       -0.1526
     14 S         143.6064  141.9091  165.3674 S.O2    1  UNL1        0.0634
     15 O         143.9561  143.0939  166.2182 O.2     1  UNL1       -0.1528
     16 O         143.2568  140.7242  164.5166 O.2     1  UNL1       -0.1528
     17 C         142.5449  141.5157  166.3515 C.ar    1  UNL1        0.1222
     18 C         141.4294  142.4662  166.6713 C.ar    1  UNL1        0.0206
     19 C         140.3679  142.0729  167.6554 C.ar    1  UNL1        0.0116
     20 C         140.4217  140.7291  168.3196 C.ar    1  UNL1        0.0685
     21 C         141.5372  139.7785  167.9997 C.ar    1  UNL1        0.0116
     22 C         142.5988  140.1718  167.0157 C.ar    1  UNL1        0.0206
     23 C         139.3602  140.3357  169.3036 C.1     1  UNL1        0.1004
     24 N         138.2986  139.9424  170.2877 N.1     1  UNL1       -0.1908
     25 C         138.1373  140.7251  159.6297 C.3     1  UNL1        0.0769
     26 C         137.3705  139.7351  160.4556 C.3     1  UNL1        0.0437
     27 C         137.8572  139.3642  161.8250 C.ar    1  UNL1       -0.0184
     28 C         138.4571  138.0108  162.0667 C.ar    1  UNL1       -0.0018
     29 C         138.9438  137.6398  163.4362 C.ar    1  UNL1        0.0316
     30 C         138.8306  138.6223  164.5640 C.ar    1  UNL1        0.1674
     31 F         139.3173  138.2514  165.9335 F       1  UNL1       -0.2018
     32 C         138.2306  139.9757  164.3223 C.ar    1  UNL1        0.1671
     33 F         138.1174  140.9582  165.4501 F       1  UNL1       -0.2018
     34 C         137.7440  140.3466  162.9529 C.ar    1  UNL1        0.0277
@<TRIPOS>BOND
     1    12    13    1
     2    13    11    1
     3    11    10    1
     4    10     1    1
     5     1     2    1
     6     2     3    1
     7     3     4    1
     8     4     5    1
     9     5    25    1
    10    25    26    1
    11    26    27    1
    12    27    28   ar
    13    28    29   ar
    14    29    30   ar
    15    30    31    1
    16    30    32   ar
    17    32    33    1
    18    32    34   ar
    19     5     6    1
    20     6     7    1
    21     7     8    1
    22     7     9    1
    23    13    14    1
    24    14    15    2
    25    14    16    2
    26    14    17    1
    27    17    18   ar
    28    18    19   ar
    29    19    20   ar
    30    20    23    1
    31    23    24    3
    32    20    21   ar
    33    21    22   ar
    34     8     1    1
    35    22    17   ar
    36     9     3    1
    37    34    27   ar
@<TRIPOS>MOLECULE
*****
 34 37 0 0 0
SMALL
GASTEIGER

@<TRIPOS>ATOM
      1 N         139.4513  142.3748  160.0104 N.3     1  UNL1       -0.2673
      2 C         138.9791  143.1748  161.1880 C.3     1  UNL1        0.1035
      3 C         139.9749  143.8474  162.0857 C.3     1  UNL1        0.1470
      4 C         140.9708  144.5200  162.9835 C.3     1  UNL1        0.1035
      5 N         142.4389  144.3926  162.7035 N.3     1  UNL1       -0.2682
      6 C         142.9112  143.5926  161.5257 C.3     1  UNL1        0.1035
      7 C         141.9153  142.9200  160.6280 C.3     1  UNL1        0.1470
      8 C         140.9195  142.2474  159.7304 C.3     1  UNL1        0.1035
      9 O         141.4431  143.7200  161.8057 O.3     1  UNL1       -0.3530
     10 C         138.4555  141.7022  159.1126 C.3     1  UNL1        0.0916
     11 C         137.9779  140.3157  159.4280 C.3     1  UNL1        0.1131
     12 C         139.7276  138.3957  159.4783 C.3     1  UNL1        0.1149
     13 N         138.8559  139.3781  160.2028 N.3     1  UNL1       -0.1526
     14 S         138.8621  139.4231  161.7021 S.O2    1  UNL1        0.0634
     15 O         137.4044  139.7771  161.6975 O.2     1  UNL1       -0.1528
     16 O         140.3197  139.0691  161.7067 O.2     1  UNL1       -0.1528
     17 C         138.8683  139.4680  163.2014 C.ar    1  UNL1        0.1222
     18 C         139.1158  138.2152  163.9883 C.ar    1  UNL1        0.0206
     19 C         139.1220  138.2601  165.4876 C.ar    1  UNL1        0.0116
     20 C         138.8807  139.5578  166.2000 C.ar    1  UNL1        0.0685
     21 C         138.6331  140.8107  165.4132 C.ar    1  UNL1        0.0116
     22 C         138.6269  140.7658  163.9139 C.ar    1  UNL1        0.0206
     23 C         138.8869  139.6027  167.6994 C.1     1  UNL1        0.1004
     24 N         138.8931  139.6477  169.1987 N.1     1  UNL1       -0.1908
     25 C         143.4348  145.0652  163.6011 C.3     1  UNL1        0.0769
     26 C         144.1553  144.2710  164.6501 C.3     1  UNL1        0.0437
     27 C         143.7630  142.8476  164.9144 C.ar    1  UNL1       -0.0184
     28 C         142.5928  142.5447  165.8026 C.ar    1  UNL1       -0.0018
     29 C         142.2004  141.1213  166.0669 C.ar    1  UNL1        0.0316
     30 C         142.9783  140.0007  165.4431 C.ar    1  UNL1        0.1674
     31 F         142.5860  138.5772  165.7074 F       1  UNL1       -0.2018
     32 C         144.1486  140.3036  164.5549 C.ar    1  UNL1        0.1671
     33 F         144.9265  139.1830  163.9311 F       1  UNL1       -0.2018
     34 C         144.5409  141.7270  164.2906 C.ar    1  UNL1        0.0277
@<TRIPOS>BOND
     1    12    13    1
     2    13    11    1
     3    11    10    1
     4    10     1    1
     5     1     2    1
     6     2     3    1
     7     3     4    1
     8     4     5    1
     9     5    25    1
    10    25    26    1
    11    26    27    1
    12    27    28   ar
    13    28    29   ar
    14    29    30   ar
    15    30    31    1
    16    30    32   ar
    17    32    33    1
    18    32    34   ar
    19     5     6    1
    20     6     7    1
    21     7     8    1
    22     7     9    1
    23    13    14    1
    24    14    15    2
    25    14    16    2
    26    14    17    1
    27    17    18   ar
    28    18    19   ar
    29    19    20   ar
    30    20    23    1
    31    23    24    3
    32    20    21   ar
    33    21    22   ar
    34     8     1    1
    35    22    17   ar
    36     9     3    1
    37    34    27   ar
@<TRIPOS>MOLECULE
*****
 34 37 0 0 0
SMALL
GASTEIGER

@<TRIPOS>ATOM
      1 N         139.6446  139.7527  159.8515 N.3     1  UNL1       -0.2673
      2 C         139.8647  141.1896  159.4818 C.3     1  UNL1        0.1035
      3 C         139.3935  142.2802  160.3974 C.3     1  UNL1        0.1470
      4 C         138.9223  143.3710  161.3130 C.3     1  UNL1        0.1035
      5 N         138.2309  143.0247  162.5984 N.3     1  UNL1       -0.2682
      6 C         138.0108  141.5877  162.9681 C.3     1  UNL1        0.1035
      7 C         138.4820  140.4971  162.0525 C.3     1  UNL1        0.1470
      8 C         138.9533  139.4064  161.1369 C.3     1  UNL1        0.1035
      9 O         138.7021  141.9340  161.6827 O.3     1  UNL1       -0.3530
     10 C         140.1158  138.6619  158.9359 C.3     1  UNL1        0.0916
     11 C         141.5464  138.2128  158.9785 C.3     1  UNL1        0.1131
     12 C         143.5114  139.9106  158.9001 C.3     1  UNL1        0.1149
     13 N         142.5731  139.0452  159.6878 N.3     1  UNL1       -0.1526
     14 S         142.6613  139.0122  161.1849 S.O2    1  UNL1        0.0634
     15 O         142.8825  140.4956  161.2046 O.2     1  UNL1       -0.1528
     16 O         142.4401  137.5287  161.1651 O.2     1  UNL1       -0.1528
     17 C         142.7495  138.9791  162.6819 C.ar    1  UNL1        0.1222
     18 C         141.6466  138.3554  163.4846 C.ar    1  UNL1        0.0206
     19 C         141.7348  138.3223  164.9816 C.ar    1  UNL1        0.0116
     20 C         142.9260  138.9130  165.6760 C.ar    1  UNL1        0.0685
     21 C         144.0290  139.5368  164.8732 C.ar    1  UNL1        0.0116
     22 C         143.9408  139.5698  163.3762 C.ar    1  UNL1        0.0206
     23 C         143.0142  138.8799  167.1730 C.1     1  UNL1        0.1004
     24 N         143.1025  138.8469  168.6700 N.1     1  UNL1       -0.1908
     25 C         137.7597  144.1154  163.5139 C.3     1  UNL1        0.0769
     26 C         138.6888  144.6813  164.5468 C.3     1  UNL1        0.0437
     27 C         140.1173  144.2271  164.5998 C.ar    1  UNL1       -0.0184
     28 C         140.4826  142.9885  165.3630 C.ar    1  UNL1       -0.0018
     29 C         141.9112  142.5342  165.4162 C.ar    1  UNL1        0.0316
     30 C         142.9745  143.3186  164.7060 C.ar    1  UNL1        0.1674
     31 F         144.4031  142.8643  164.7591 F       1  UNL1       -0.2018
     32 C         142.6092  144.5572  163.9428 C.ar    1  UNL1        0.1671
     33 F         143.6724  145.3415  163.2327 F       1  UNL1       -0.2018
     34 C         141.1806  145.0114  163.8897 C.ar    1  UNL1        0.0277
@<TRIPOS>BOND
     1    12    13    1
     2    13    11    1
     3    11    10    1
     4    10     1    1
     5     1     2    1
     6     2     3    1
     7     3     4    1
     8     4     5    1
     9     5    25    1
    10    25    26    1
    11    26    27    1
    12    27    28   ar
    13    28    29   ar
    14    29    30   ar
    15    30    31    1
    16    30    32   ar
    17    32    33    1
    18    32    34   ar
    19     5     6    1
    20     6     7    1
    21     7     8    1
    22     7     9    1
    23    13    14    1
    24    14    15    2
    25    14    16    2
    26    14    17    1
    27    17    18   ar
    28    18    19   ar
    29    19    20   ar
    30    20    23    1
    31    23    24    3
    32    20    21   ar
    33    21    22   ar
    34     8     1    1
    35    22    17   ar
    36     9     3    1
    37    34    27   ar
@<TRIPOS>MOLECULE
*****
 34 37 0 0 0
SMALL
GASTEIGER

@<TRIPOS>ATOM
      1 N         138.9779  140.2530  159.8524 N.3     1  UNL1       -0.2673
      2 C         138.2024  139.7591  161.0376 C.3     1  UNL1        0.1035
      3 C         137.8301  140.7076  162.1384 C.3     1  UNL1        0.1470
      4 C         137.4578  141.6560  163.2393 C.3     1  UNL1        0.1035
      5 N         137.8610  143.0984  163.1549 N.3     1  UNL1       -0.2682
      6 C         138.6365  143.5922  161.9697 C.3     1  UNL1        0.1035
      7 C         139.0088  142.6438  160.8689 C.3     1  UNL1        0.1470
      8 C         139.3811  141.6954  159.7681 C.3     1  UNL1        0.1035
      9 O         138.2333  142.1499  162.0540 O.3     1  UNL1       -0.3530
     10 C         139.3502  139.3046  158.7515 C.3     1  UNL1        0.0916
     11 C         140.4929  138.3509  158.9377 C.3     1  UNL1        0.1131
     12 C         142.8837  139.3039  158.5825 C.3     1  UNL1        0.1149
     13 N         141.7936  138.8400  159.5026 N.3     1  UNL1       -0.1526
     14 S         142.0042  138.8653  160.9875 S.O2    1  UNL1        0.0634
     15 O         141.2402  137.5811  161.1177 O.2     1  UNL1       -0.1528
     16 O         142.7681  140.1496  160.8573 O.2     1  UNL1       -0.1528
     17 C         142.2147  138.8906  162.4724 C.ar    1  UNL1        0.1222
     18 C         143.6024  138.9986  163.0314 C.ar    1  UNL1        0.0206
     19 C         143.8129  139.0239  164.5164 C.ar    1  UNL1        0.0116
     20 C         142.6358  138.9412  165.4423 C.ar    1  UNL1        0.0685
     21 C         141.2480  138.8332  164.8833 C.ar    1  UNL1        0.0116
     22 C         141.0374  138.8079  163.3984 C.ar    1  UNL1        0.0206
     23 C         142.8463  138.9665  166.9272 C.1     1  UNL1        0.1004
     24 N         143.0568  138.9918  168.4122 N.1     1  UNL1       -0.1908
     25 C         137.4887  144.0468  164.2557 C.3     1  UNL1        0.0769
     26 C         138.5604  144.7003  165.0771 C.3     1  UNL1        0.0437
     27 C         139.9125  144.0611  165.1913 C.ar    1  UNL1       -0.0184
     28 C         140.1418  142.9646  166.1889 C.ar    1  UNL1       -0.0018
     29 C         141.4939  142.3253  166.3031 C.ar    1  UNL1        0.0316
     30 C         142.6167  142.7825  165.4198 C.ar    1  UNL1        0.1674
     31 F         143.9688  142.1432  165.5341 F       1  UNL1       -0.2018
     32 C         142.3874  143.8790  164.4222 C.ar    1  UNL1        0.1671
     33 F         143.5102  144.3362  163.5389 F       1  UNL1       -0.2018
     34 C         141.0353  144.5183  164.3080 C.ar    1  UNL1        0.0277
@<TRIPOS>BOND
     1    12    13    1
     2    13    11    1
     3    11    10    1
     4    10     1    1
     5     1     2    1
     6     2     3    1
     7     3     4    1
     8     4     5    1
     9     5    25    1
    10    25    26    1
    11    26    27    1
    12    27    28   ar
    13    28    29   ar
    14    29    30   ar
    15    30    31    1
    16    30    32   ar
    17    32    33    1
    18    32    34   ar
    19     5     6    1
    20     6     7    1
    21     7     8    1
    22     7     9    1
    23    13    14    1
    24    14    15    2
    25    14    16    2
    26    14    17    1
    27    17    18   ar
    28    18    19   ar
    29    19    20   ar
    30    20    23    1
    31    23    24    3
    32    20    21   ar
    33    21    22   ar
    34     8     1    1
    35    22    17   ar
    36     9     3    1
    37    34    27   ar
@<TRIPOS>MOLECULE
*****
 34 37 0 0 0
SMALL
GASTEIGER

@<TRIPOS>ATOM
      1 N         138.7498  143.0969  164.8775 N.3     1  UNL1       -0.2673
      2 C         138.4575  141.6289  164.7817 C.3     1  UNL1        0.1035
      3 C         139.4349  140.6322  165.3305 C.3     1  UNL1        0.1470
      4 C         140.4123  139.6354  165.8794 C.3     1  UNL1        0.1035
      5 N         141.6821  140.1068  166.5240 N.3     1  UNL1       -0.2682
      6 C         141.9744  141.5750  166.6198 C.3     1  UNL1        0.1035
      7 C         140.9969  142.5717  166.0710 C.3     1  UNL1        0.1470
      8 C         140.0195  143.5684  165.5222 C.3     1  UNL1        0.1035
      9 O         140.7046  141.1036  165.9752 O.3     1  UNL1       -0.3530
     10 C         137.7723  144.0937  164.3287 C.3     1  UNL1        0.0916
     11 C         137.7168  144.3553  162.8528 C.3     1  UNL1        0.1131
     12 C         139.5894  145.9660  162.0469 C.3     1  UNL1        0.1149
     13 N         138.9833  144.5945  162.0853 N.3     1  UNL1       -0.1526
     14 S         139.6436  143.4621  161.3562 S.O2    1  UNL1        0.0634
     15 O         140.9095  143.7067  162.1228 O.2     1  UNL1       -0.1528
     16 O         138.3777  143.2174  160.5897 O.2     1  UNL1       -0.1528
     17 C         140.3040  142.3296  160.6271 C.ar    1  UNL1        0.1222
     18 C         141.2937  142.6153  159.5368 C.ar    1  UNL1        0.0206
     19 C         141.9540  141.4828  158.8077 C.ar    1  UNL1        0.0116
     20 C         141.6246  140.0648  159.1690 C.ar    1  UNL1        0.0685
     21 C         140.6349  139.7791  160.2593 C.ar    1  UNL1        0.0116
     22 C         139.9745  140.9115  160.9884 C.ar    1  UNL1        0.0206
     23 C         142.2850  138.9323  158.4399 C.1     1  UNL1        0.1004
     24 N         142.9453  137.7999  157.7108 N.1     1  UNL1       -0.1908
     25 C         142.6595  139.1101  167.0728 C.3     1  UNL1        0.0769
     26 C         143.7357  138.5508  166.1902 C.3     1  UNL1        0.0437
     27 C         143.9274  139.0938  164.8051 C.ar    1  UNL1       -0.0184
     28 C         143.1731  138.4965  163.6544 C.ar    1  UNL1       -0.0018
     29 C         143.3647  139.0395  162.2693 C.ar    1  UNL1        0.0316
     30 C         144.3107  140.1797  162.0350 C.ar    1  UNL1        0.1674
     31 F         144.5024  140.7227  160.6499 F       1  UNL1       -0.2018
     32 C         145.0651  140.7770  163.1858 C.ar    1  UNL1        0.1671
     33 F         146.0111  141.9173  162.9515 F       1  UNL1       -0.2018
     34 C         144.8734  140.2340  164.5708 C.ar    1  UNL1        0.0277
@<TRIPOS>BOND
     1    12    13    1
     2    13    11    1
     3    11    10    1
     4    10     1    1
     5     1     2    1
     6     2     3    1
     7     3     4    1
     8     4     5    1
     9     5    25    1
    10    25    26    1
    11    26    27    1
    12    27    28   ar
    13    28    29   ar
    14    29    30   ar
    15    30    31    1
    16    30    32   ar
    17    32    33    1
    18    32    34   ar
    19     5     6    1
    20     6     7    1
    21     7     8    1
    22     7     9    1
    23    13    14    1
    24    14    15    2
    25    14    16    2
    26    14    17    1
    27    17    18   ar
    28    18    19   ar
    29    19    20   ar
    30    20    23    1
    31    23    24    3
    32    20    21   ar
    33    21    22   ar
    34     8     1    1
    35    22    17   ar
    36     9     3    1
    37    34    27   ar
@<TRIPOS>MOLECULE
*****
 34 37 0 0 0
SMALL
GASTEIGER

@<TRIPOS>ATOM
      1 N         141.7109  141.6727  158.8530 N.3     1  UNL1       -0.2673
      2 C         142.5884  142.5341  159.7119 C.3     1  UNL1        0.1035
      3 C         141.9828  143.3776  160.7944 C.3     1  UNL1        0.1470
      4 C         141.3773  144.2211  161.8770 C.3     1  UNL1        0.1035
      5 N         139.8941  144.2031  162.1005 N.3     1  UNL1       -0.2682
      6 C         139.0166  143.3416  161.2415 C.3     1  UNL1        0.1035
      7 C         139.6221  142.4982  160.1591 C.3     1  UNL1        0.1470
      8 C         140.2277  141.6547  159.0766 C.3     1  UNL1        0.1035
      9 O         140.4997  143.3596  161.0180 O.3     1  UNL1       -0.3530
     10 C         142.3164  140.8292  157.7705 C.3     1  UNL1        0.0916
     11 C         143.4021  139.8488  158.1024 C.3     1  UNL1        0.1131
     12 C         142.7434  137.3367  158.1741 C.3     1  UNL1        0.1149
     13 N         143.0812  138.6119  158.8880 N.3     1  UNL1       -0.1526
     14 S         143.0982  138.6502  160.3874 S.O2    1  UNL1        0.0634
     15 O         144.5495  139.0283  160.3613 O.2     1  UNL1       -0.1528
     16 O         141.6468  138.2721  160.4135 O.2     1  UNL1       -0.1528
     17 C         143.1151  138.6885  161.8868 C.ar    1  UNL1        0.1222
     18 C         144.2328  139.3830  162.6067 C.ar    1  UNL1        0.0206
     19 C         144.2498  139.4214  164.1061 C.ar    1  UNL1        0.0116
     20 C         143.1490  138.7652  164.8856 C.ar    1  UNL1        0.0685
     21 C         142.0312  138.0706  164.1657 C.ar    1  UNL1        0.0116
     22 C         142.0143  138.0323  162.6663 C.ar    1  UNL1        0.0206
     23 C         143.1659  138.8035  166.3850 C.1     1  UNL1        0.1004
     24 N         143.1829  138.8419  167.8845 N.1     1  UNL1       -0.1908
     25 C         139.2885  145.0466  163.1830 C.3     1  UNL1        0.0769
     26 C         138.4242  144.4129  164.2325 C.3     1  UNL1        0.0437
     27 C         138.8200  143.0983  164.8367 C.ar    1  UNL1       -0.0184
     28 C         138.0131  141.8672  164.5484 C.ar    1  UNL1       -0.0018
     29 C         138.4089  140.5525  165.1526 C.ar    1  UNL1        0.0316
     30 C         139.6116  140.4690  166.0450 C.ar    1  UNL1        0.1674
     31 F         140.0074  139.1544  166.6492 F       1  UNL1       -0.2018
     32 C         140.4185  141.7002  166.3333 C.ar    1  UNL1        0.1671
     33 F         141.6212  141.6167  167.2258 F       1  UNL1       -0.2018
     34 C         140.0227  143.0148  165.7291 C.ar    1  UNL1        0.0277
@<TRIPOS>BOND
     1    12    13    1
     2    13    11    1
     3    11    10    1
     4    10     1    1
     5     1     2    1
     6     2     3    1
     7     3     4    1
     8     4     5    1
     9     5    25    1
    10    25    26    1
    11    26    27    1
    12    27    28   ar
    13    28    29   ar
    14    29    30   ar
    15    30    31    1
    16    30    32   ar
    17    32    33    1
    18    32    34   ar
    19     5     6    1
    20     6     7    1
    21     7     8    1
    22     7     9    1
    23    13    14    1
    24    14    15    2
    25    14    16    2
    26    14    17    1
    27    17    18   ar
    28    18    19   ar
    29    19    20   ar
    30    20    23    1
    31    23    24    3
    32    20    21   ar
    33    21    22   ar
    34     8     1    1
    35    22    17   ar
    36     9     3    1
    37    34    27   ar
@<TRIPOS>MOLECULE
*****
 34 37 0 0 0
SMALL
GASTEIGER

@<TRIPOS>ATOM
      1 N         140.8214  138.4423  159.7853 N.3     1  UNL1       -0.2673
      2 C         141.7091  137.9354  160.8830 C.3     1  UNL1        0.1035
      3 C         141.1495  137.7102  162.2563 C.3     1  UNL1        0.1470
      4 C         140.5900  137.4849  163.6297 C.3     1  UNL1        0.1035
      5 N         139.1426  137.7665  163.9053 N.3     1  UNL1       -0.2682
      6 C         138.2549  138.2734  162.8075 C.3     1  UNL1        0.1035
      7 C         138.8145  138.4987  161.4342 C.3     1  UNL1        0.1470
      8 C         139.3741  138.7239  160.0609 C.3     1  UNL1        0.1035
      9 O         139.7022  137.9918  162.5319 O.3     1  UNL1       -0.3530
     10 C         141.3810  138.6676  158.4118 C.3     1  UNL1        0.0916
     11 C         142.8588  138.5624  158.1776 C.3     1  UNL1        0.1131
     12 C         144.3467  140.3115  156.9622 C.3     1  UNL1        0.1149
     13 N         143.7144  139.7938  158.2200 N.3     1  UNL1       -0.1526
     14 S         143.9378  140.5074  159.5204 S.O2    1  UNL1        0.0634
     15 O         143.3729  141.7642  158.9277 O.2     1  UNL1       -0.1528
     16 O         144.5026  139.2505  160.1131 O.2     1  UNL1       -0.1528
     17 C         144.1611  141.2209  160.8207 C.ar    1  UNL1        0.1222
     18 C         144.0963  142.7185  160.8752 C.ar    1  UNL1        0.0206
     19 C         144.3196  143.4321  162.1756 C.ar    1  UNL1        0.0116
     20 C         144.6078  142.6481  163.4214 C.ar    1  UNL1        0.0685
     21 C         144.6726  141.1504  163.3670 C.ar    1  UNL1        0.0116
     22 C         144.4493  140.4369  162.0667 C.ar    1  UNL1        0.0206
     23 C         144.8311  143.3617  164.7218 C.1     1  UNL1        0.1004
     24 N         145.0545  144.0753  166.0221 N.1     1  UNL1       -0.1908
     25 C         138.5831  137.5413  165.2787 C.3     1  UNL1        0.0769
     26 C         138.5988  138.6522  166.2865 C.3     1  UNL1        0.0437
     27 C         139.3487  139.9182  165.9955 C.ar    1  UNL1       -0.0184
     28 C         138.6767  141.0338  165.2513 C.ar    1  UNL1       -0.0018
     29 C         139.4266  142.2999  164.9603 C.ar    1  UNL1        0.0316
     30 C         140.8485  142.4504  165.4135 C.ar    1  UNL1        0.1674
     31 F         141.5984  143.7165  165.1225 F       1  UNL1       -0.2018
     32 C         141.5206  141.3348  166.1577 C.ar    1  UNL1        0.1671
     33 F         142.9426  141.4852  166.6108 F       1  UNL1       -0.2018
     34 C         140.7707  140.0687  166.4487 C.ar    1  UNL1        0.0277
@<TRIPOS>BOND
     1    12    13    1
     2    13    11    1
     3    11    10    1
     4    10     1    1
     5     1     2    1
     6     2     3    1
     7     3     4    1
     8     4     5    1
     9     5    25    1
    10    25    26    1
    11    26    27    1
    12    27    28   ar
    13    28    29   ar
    14    29    30   ar
    15    30    31    1
    16    30    32   ar
    17    32    33    1
    18    32    34   ar
    19     5     6    1
    20     6     7    1
    21     7     8    1
    22     7     9    1
    23    13    14    1
    24    14    15    2
    25    14    16    2
    26    14    17    1
    27    17    18   ar
    28    18    19   ar
    29    19    20   ar
    30    20    23    1
    31    23    24    3
    32    20    21   ar
    33    21    22   ar
    34     8     1    1
    35    22    17   ar
    36     9     3    1
    37    34    27   ar
