@<TRIPOS>MOLECULE
*****
 39 44 0 0 0
SMALL
GASTEIGER

@<TRIPOS>ATOM
      1 C         144.4536  139.7669  163.4082 C.3     1  UNL1        0.0700
      2 C         144.1357  139.4632  164.8423 C.3     1  UNL1        0.0193
      3 C         142.9967  138.5476  165.1803 C.3     1  UNL1        0.0286
      4 C         142.1755  137.9358  164.0842 C.3     1  UNL1        0.0932
      5 C         142.4934  138.2395  162.6501 C.3     1  UNL1        0.0286
      6 C         143.6325  139.1551  162.3121 C.3     1  UNL1        0.0193
      7 O         142.7898  138.4314  163.8499 O.3     1  UNL1       -0.3572
      8 C         143.8197  139.2593  163.5442 C.3     1  UNL1        0.1562
      9 N         145.5927  140.6825  163.0701 N.3     1  UNL1       -0.2926
     10 H         146.4323  140.2705  163.4771 H       1  UNL1        0.1236
     11 C         145.5578  142.1166  163.5087 C.3     1  UNL1        0.1152
     12 O         140.4866  145.6208  158.7386 O.2     1  UNL1       -0.2707
     13 C         140.9349  145.2690  160.1261 C.2     1  UNL1        0.2718
     14 C         140.1412  145.7333  161.3111 C.3     1  UNL1        0.2898
     15 O         140.5895  145.3814  162.6986 O.3     1  UNL1       -0.4628
     16 C         141.8315  144.5652  162.9011 C.ar    1  UNL1        0.1708
     17 C         142.2798  144.2134  164.2887 C.ar    1  UNL1        0.0411
     18 C         143.5219  143.3972  164.4912 C.ar    1  UNL1        0.0193
     19 C         144.3157  142.9328  163.3061 C.ar    1  UNL1        0.0765
     20 N         143.8674  143.2847  161.9186 N.ar    1  UNL1       -0.2304
     21 C         142.6253  144.1009  161.7161 C.ar    1  UNL1        0.1682
     22 N         142.1770  144.4528  160.3286 N.am    1  UNL1       -0.2639
     23 H         142.6980  144.1480  159.5509 H       1  UNL1        0.1565
     24 C         141.0365  137.0202  164.4223 C.3     1  UNL1        0.0319
     25 C         139.6876  137.5898  164.7479 C.3     1  UNL1        0.0304
     26 C         139.0032  138.5015  163.7731 C.ar    1  UNL1       -0.0014
     27 C         138.3807  137.9387  162.5297 C.ar    1  UNL1        0.0179
     28 C         137.6963  138.8504  161.5549 C.ar    1  UNL1        0.0986
     29 N         137.6343  140.3249  161.8233 N.ar    1  UNL1       -0.2423
     30 C         138.2567  140.8877  163.0666 C.ar    1  UNL1        0.0986
     31 C         138.1948  142.3622  163.3350 C.ar    1  UNL1        0.0221
     32 C         138.8173  142.9250  164.5783 C.ar    1  UNL1        0.0247
     33 C         139.5017  142.0133  165.5532 C.ar    1  UNL1        0.1527
     34 N         139.5636  140.5388  165.2848 N.ar    1  UNL1       -0.2402
     35 C         138.9412  139.9760  164.0415 C.ar    1  UNL1        0.0948
     36 C         140.1241  142.5761  166.7964 C.3     1  UNL1        0.4348
     37 F         140.7466  143.1389  168.0398 F       1  UNL1       -0.1644
     38 F         139.6233  143.9414  166.4291 F       1  UNL1       -0.1644
     39 F         140.6250  141.2108  167.1638 F       1  UNL1       -0.1644
@<TRIPOS>BOND
     1    12    13    2
     2    13    14    1
     3    14    15    1
     4    15    16    1
     5    16    17   ar
     6    17    18   ar
     7    18    19   ar
     8    19    11    1
     9    11     9    1
    10     9     1    1
    11     1     2    1
    12     2     3    1
    13     3     4    1
    14     4    24    1
    15    24    25    1
    16    25    26    1
    17    26    27   ar
    18    27    28   ar
    19    28    29   ar
    20    29    30   ar
    21    30    31   ar
    22    31    32   ar
    23    32    33   ar
    24    33    36    1
    25    36    37    1
    26    36    38    1
    27    36    39    1
    28    33    34   ar
    29    34    35   ar
    30     4     5    1
    31     5     6    1
    32     4     7    1
    33     7     8    1
    34    19    20   ar
    35    20    21   ar
    36    21    22    1
    37    22    13   am
    38    21    16   ar
    39     6     1    1
    40     8     1    1
    41    35    26   ar
    42    35    30   ar
    43     9    10    1
    44    22    23    1
@<TRIPOS>MOLECULE
*****
 39 44 0 0 0
SMALL
GASTEIGER

@<TRIPOS>ATOM
      1 C         137.8857  140.0776  162.1727 C.3     1  UNL1        0.0700
      2 C         138.0172  141.1895  161.1745 C.3     1  UNL1        0.0193
      3 C         137.9878  142.6171  161.6337 C.3     1  UNL1        0.0286
      4 C         137.8268  142.9329  163.0913 C.3     1  UNL1        0.0932
      5 C         137.6954  141.8210  164.0895 C.3     1  UNL1        0.0286
      6 C         137.7248  140.3933  163.6302 C.3     1  UNL1        0.0193
      7 O         137.8373  142.1352  162.8874 O.3     1  UNL1       -0.3572
      8 C         137.8639  140.8443  162.4721 C.3     1  UNL1        0.1562
      9 N         137.9152  138.6500  161.7134 N.3     1  UNL1       -0.2926
     10 H         137.5119  138.0905  162.4649 H       1  UNL1        0.1236
     11 C         139.2198  138.0067  161.3469 C.3     1  UNL1        0.1152
     12 O         145.9671  141.6445  162.7578 O.2     1  UNL1       -0.2707
     13 C         144.9258  140.6396  163.1525 C.2     1  UNL1        0.2718
     14 C         145.0921  139.8425  164.4121 C.3     1  UNL1        0.2898
     15 O         144.0508  138.8376  164.8068 O.3     1  UNL1       -0.4628
     16 C         142.8430  138.6299  163.9419 C.ar    1  UNL1        0.1708
     17 C         141.8017  137.6250  164.3366 C.ar    1  UNL1        0.0411
     18 C         140.5940  137.4173  163.4716 C.ar    1  UNL1        0.0193
     19 C         140.4275  138.2144  162.2119 C.ar    1  UNL1        0.0765
     20 N         141.4689  139.2193  161.8172 N.ar    1  UNL1       -0.2304
     21 C         142.6767  139.4270  162.6822 C.ar    1  UNL1        0.1682
     22 N         143.7180  140.4319  162.2875 N.am    1  UNL1       -0.2639
     23 H         143.6088  140.9551  161.4607 H       1  UNL1        0.1565
     24 C         137.7974  144.3605  163.5506 C.3     1  UNL1        0.0319
     25 C         138.9228  144.9051  164.3794 C.3     1  UNL1        0.0304
     26 C         140.3214  144.4073  164.1648 C.ar    1  UNL1       -0.0014
     27 C         141.0722  144.7915  162.9243 C.ar    1  UNL1        0.0179
     28 C         142.4708  144.2937  162.7098 C.ar    1  UNL1        0.0986
     29 N         143.1186  143.4117  163.7356 N.ar    1  UNL1       -0.2423
     30 C         142.3679  143.0275  164.9761 C.ar    1  UNL1        0.0986
     31 C         143.0158  142.1456  166.0019 C.ar    1  UNL1        0.0221
     32 C         142.2649  141.7614  167.2424 C.ar    1  UNL1        0.0247
     33 C         140.8664  142.2592  167.4570 C.ar    1  UNL1        0.1527
     34 N         140.2185  143.1411  166.4311 N.ar    1  UNL1       -0.2402
     35 C         140.9692  143.5253  165.1907 C.ar    1  UNL1        0.0948
     36 C         140.1156  141.8750  168.6974 C.3     1  UNL1        0.4348
     37 F         139.3648  141.4907  169.9379 F       1  UNL1       -0.1644
     38 F         140.1657  143.2982  169.1686 F       1  UNL1       -0.1644
     39 F         140.0655  140.4518  168.2263 F       1  UNL1       -0.1644
@<TRIPOS>BOND
     1    12    13    2
     2    13    14    1
     3    14    15    1
     4    15    16    1
     5    16    17   ar
     6    17    18   ar
     7    18    19   ar
     8    19    11    1
     9    11     9    1
    10     9     1    1
    11     1     2    1
    12     2     3    1
    13     3     4    1
    14     4    24    1
    15    24    25    1
    16    25    26    1
    17    26    27   ar
    18    27    28   ar
    19    28    29   ar
    20    29    30   ar
    21    30    31   ar
    22    31    32   ar
    23    32    33   ar
    24    33    36    1
    25    36    37    1
    26    36    38    1
    27    36    39    1
    28    33    34   ar
    29    34    35   ar
    30     4     5    1
    31     5     6    1
    32     4     7    1
    33     7     8    1
    34    19    20   ar
    35    20    21   ar
    36    21    22    1
    37    22    13   am
    38    21    16   ar
    39     6     1    1
    40     8     1    1
    41    35    26   ar
    42    35    30   ar
    43     9    10    1
    44    22    23    1
@<TRIPOS>MOLECULE
*****
 39 44 0 0 0
SMALL
GASTEIGER

@<TRIPOS>ATOM
      1 C         143.7045  143.8021  162.3344 C.3     1  UNL1        0.0700
      2 C         143.3872  144.3649  163.6881 C.3     1  UNL1        0.0193
      3 C         142.0188  144.9097  163.9719 C.3     1  UNL1        0.0286
      4 C         140.9675  144.8917  162.9020 C.3     1  UNL1        0.0932
      5 C         141.2848  144.3289  161.5483 C.3     1  UNL1        0.0286
      6 C         142.6533  143.7841  161.2645 C.3     1  UNL1        0.0193
      7 O         141.7030  144.5819  162.6994 O.3     1  UNL1       -0.3572
      8 C         142.9404  144.0893  162.4428 C.3     1  UNL1        0.1562
      9 N         145.0729  143.2573  162.0505 N.3     1  UNL1       -0.2926
     10 H         145.4153  143.7396  161.2196 H       1  UNL1        0.1236
     11 C         145.2599  141.7890  161.8069 C.3     1  UNL1        0.1152
     12 O         138.9563  137.3431  162.9238 O.2     1  UNL1       -0.2707
     13 C         140.3024  137.8257  163.3767 C.2     1  UNL1        0.2718
     14 C         140.8933  137.3089  164.6549 C.3     1  UNL1        0.2898
     15 O         142.2394  137.7916  165.1078 O.3     1  UNL1       -0.4628
     16 C         142.9945  138.7909  164.2826 C.ar    1  UNL1        0.1708
     17 C         144.3406  139.2735  164.7356 C.ar    1  UNL1        0.0411
     18 C         145.0957  140.2729  163.9104 C.ar    1  UNL1        0.0193
     19 C         144.5048  140.7897  162.6321 C.ar    1  UNL1        0.0765
     20 N         143.1587  140.3071  162.1792 N.ar    1  UNL1       -0.2304
     21 C         142.4036  139.3077  163.0045 C.ar    1  UNL1        0.1682
     22 N         141.0575  138.8250  162.5515 N.am    1  UNL1       -0.2639
     23 H         140.6697  139.1642  161.7126 H       1  UNL1        0.1565
     24 C         139.5991  145.4365  163.1858 C.3     1  UNL1        0.0319
     25 C         138.7433  144.8018  164.2416 C.3     1  UNL1        0.0304
     26 C         138.4807  143.3254  164.2067 C.ar    1  UNL1       -0.0014
     27 C         137.6428  142.7383  163.1097 C.ar    1  UNL1        0.0179
     28 C         137.3802  141.2620  163.0748 C.ar    1  UNL1        0.0986
     29 N         137.9554  140.3725  164.1369 N.ar    1  UNL1       -0.2423
     30 C         138.7932  140.9595  165.2339 C.ar    1  UNL1        0.0986
     31 C         139.3685  140.0701  166.2960 C.ar    1  UNL1        0.0221
     32 C         140.2063  140.6571  167.3930 C.ar    1  UNL1        0.0247
     33 C         140.4689  142.1335  167.4279 C.ar    1  UNL1        0.1527
     34 N         139.8937  143.0229  166.3658 N.ar    1  UNL1       -0.2402
     35 C         139.0559  142.4360  165.2688 C.ar    1  UNL1        0.0948
     36 C         141.3068  142.7205  168.5249 C.3     1  UNL1        0.4348
     37 F         142.1447  143.3075  169.6220 F       1  UNL1       -0.1644
     38 F         140.0626  143.1050  169.2694 F       1  UNL1       -0.1644
     39 F         142.5509  142.3359  167.7805 F       1  UNL1       -0.1644
@<TRIPOS>BOND
     1    12    13    2
     2    13    14    1
     3    14    15    1
     4    15    16    1
     5    16    17   ar
     6    17    18   ar
     7    18    19   ar
     8    19    11    1
     9    11     9    1
    10     9     1    1
    11     1     2    1
    12     2     3    1
    13     3     4    1
    14     4    24    1
    15    24    25    1
    16    25    26    1
    17    26    27   ar
    18    27    28   ar
    19    28    29   ar
    20    29    30   ar
    21    30    31   ar
    22    31    32   ar
    23    32    33   ar
    24    33    36    1
    25    36    37    1
    26    36    38    1
    27    36    39    1
    28    33    34   ar
    29    34    35   ar
    30     4     5    1
    31     5     6    1
    32     4     7    1
    33     7     8    1
    34    19    20   ar
    35    20    21   ar
    36    21    22    1
    37    22    13   am
    38    21    16   ar
    39     6     1    1
    40     8     1    1
    41    35    26   ar
    42    35    30   ar
    43     9    10    1
    44    22    23    1
@<TRIPOS>MOLECULE
*****
 39 44 0 0 0
SMALL
GASTEIGER

@<TRIPOS>ATOM
      1 C         142.2770  144.6328  163.4919 C.3     1  UNL1        0.0700
      2 C         141.9787  143.7768  164.6870 C.3     1  UNL1        0.0193
      3 C         142.7996  142.5504  164.9549 C.3     1  UNL1        0.0286
      4 C         143.9189  142.1798  164.0275 C.3     1  UNL1        0.0932
      5 C         144.2172  143.0357  162.8324 C.3     1  UNL1        0.0286
      6 C         143.3962  144.2623  162.5645 C.3     1  UNL1        0.0193
      7 O         143.4967  142.8612  163.8396 O.3     1  UNL1       -0.3572
      8 C         142.7543  143.9702  163.5974 C.3     1  UNL1        0.1562
      9 N         141.4560  145.8592  163.2240 N.3     1  UNL1       -0.2926
     10 H         141.0822  146.1653  164.1224 H       1  UNL1        0.1236
     11 C         140.2980  145.7937  162.2728 C.3     1  UNL1        0.1152
     12 O         138.7511  139.2571  158.3194 O.2     1  UNL1       -0.2707
     13 C         138.4903  140.1613  159.4875 C.2     1  UNL1        0.2718
     14 C         137.4532  139.7909  160.5058 C.3     1  UNL1        0.2898
     15 O         137.1924  140.6951  161.6739 O.3     1  UNL1       -0.4628
     16 C         137.9688  141.9697  161.8236 C.ar    1  UNL1        0.1708
     17 C         137.7080  142.8739  162.9917 C.ar    1  UNL1        0.0411
     18 C         138.4844  144.1486  163.1414 C.ar    1  UNL1        0.0193
     19 C         139.5216  144.5191  162.1230 C.ar    1  UNL1        0.0765
     20 N         139.7824  143.6148  160.9550 N.ar    1  UNL1       -0.2304
     21 C         139.0059  142.3401  160.8053 C.ar    1  UNL1        0.1682
     22 N         139.2667  141.4359  159.6372 N.am    1  UNL1       -0.2639
     23 H         139.9474  141.6791  158.9688 H       1  UNL1        0.1565
     24 C         144.7399  140.9533  164.2953 C.3     1  UNL1        0.0319
     25 C         144.0638  139.6554  164.6246 C.3     1  UNL1        0.0304
     26 C         143.2069  138.9748  163.5988 C.ar    1  UNL1       -0.0014
     27 C         143.7980  138.5583  162.2846 C.ar    1  UNL1        0.0179
     28 C         142.9411  137.8777  161.2588 C.ar    1  UNL1        0.0986
     29 N         141.4930  137.6134  161.5472 N.ar    1  UNL1       -0.2423
     30 C         140.9018  138.0297  162.8614 C.ar    1  UNL1        0.0986
     31 C         139.4537  137.7655  163.1498 C.ar    1  UNL1        0.0221
     32 C         138.8626  138.1819  164.4640 C.ar    1  UNL1        0.0247
     33 C         139.7195  138.8626  165.4898 C.ar    1  UNL1        0.1527
     34 N         141.1676  139.1269  165.2014 N.ar    1  UNL1       -0.2402
     35 C         141.7588  138.7105  163.8872 C.ar    1  UNL1        0.0948
     36 C         139.1284  139.2789  166.8040 C.3     1  UNL1        0.4348
     37 F         138.5372  139.6954  168.1183 F       1  UNL1       -0.1644
     38 F         137.7565  138.9604  166.2878 F       1  UNL1       -0.1644
     39 F         140.5002  139.5975  167.3202 F       1  UNL1       -0.1644
@<TRIPOS>BOND
     1    12    13    2
     2    13    14    1
     3    14    15    1
     4    15    16    1
     5    16    17   ar
     6    17    18   ar
     7    18    19   ar
     8    19    11    1
     9    11     9    1
    10     9     1    1
    11     1     2    1
    12     2     3    1
    13     3     4    1
    14     4    24    1
    15    24    25    1
    16    25    26    1
    17    26    27   ar
    18    27    28   ar
    19    28    29   ar
    20    29    30   ar
    21    30    31   ar
    22    31    32   ar
    23    32    33   ar
    24    33    36    1
    25    36    37    1
    26    36    38    1
    27    36    39    1
    28    33    34   ar
    29    34    35   ar
    30     4     5    1
    31     5     6    1
    32     4     7    1
    33     7     8    1
    34    19    20   ar
    35    20    21   ar
    36    21    22    1
    37    22    13   am
    38    21    16   ar
    39     6     1    1
    40     8     1    1
    41    35    26   ar
    42    35    30   ar
    43     9    10    1
    44    22    23    1
@<TRIPOS>MOLECULE
*****
 39 44 0 0 0
SMALL
GASTEIGER

@<TRIPOS>ATOM
      1 C         142.3828  138.2520  162.4870 C.3     1  UNL1        0.0700
      2 C         142.7110  138.3679  163.9460 C.3     1  UNL1        0.0193
      3 C         143.8211  139.2710  164.3956 C.3     1  UNL1        0.0286
      4 C         144.6030  140.0581  163.3861 C.3     1  UNL1        0.0932
      5 C         144.2748  139.9421  161.9270 C.3     1  UNL1        0.0286
      6 C         143.1646  139.0390  161.4775 C.3     1  UNL1        0.0193
      7 O         144.0036  139.5763  163.0918 O.3     1  UNL1       -0.3572
      8 C         142.9998  138.7598  162.6853 C.3     1  UNL1        0.1562
      9 N         141.2727  137.3489  162.0374 N.3     1  UNL1       -0.2926
     10 H         141.6264  136.8227  161.2385 H       1  UNL1        0.1236
     11 C         139.9537  137.9309  161.6229 C.3     1  UNL1        0.1152
     12 O         138.2853  145.5256  162.1584 O.2     1  UNL1       -0.2707
     13 C         138.2562  144.1448  162.7436 C.2     1  UNL1        0.2718
     14 C         137.6418  143.9147  164.0925 C.3     1  UNL1        0.2898
     15 O         137.6127  142.5339  164.6777 O.3     1  UNL1       -0.4628
     16 C         138.1979  141.3831  163.9140 C.ar    1  UNL1        0.1708
     17 C         138.1688  140.0023  164.4992 C.ar    1  UNL1        0.0411
     18 C         138.7540  138.8515  163.7356 C.ar    1  UNL1        0.0193
     19 C         139.3684  139.0816  162.3866 C.ar    1  UNL1        0.0765
     20 N         139.3976  140.4624  161.8014 N.ar    1  UNL1       -0.2304
     21 C         138.8123  141.6132  162.5651 C.ar    1  UNL1        0.1682
     22 N         138.8414  142.9940  161.9799 N.am    1  UNL1       -0.2639
     23 H         139.2447  143.1450  161.0946 H       1  UNL1        0.1565
     24 C         145.7131  140.9611  163.8356 C.3     1  UNL1        0.0319
     25 C         145.4293  142.4007  164.1473 C.3     1  UNL1        0.0304
     26 C         144.0412  142.9444  163.9814 C.ar    1  UNL1       -0.0014
     27 C         143.6549  143.6393  162.7094 C.ar    1  UNL1        0.0179
     28 C         142.2668  144.1830  162.5436 C.ar    1  UNL1        0.0986
     29 N         141.2650  144.0319  163.6498 N.ar    1  UNL1       -0.2423
     30 C         141.6513  143.3370  164.9217 C.ar    1  UNL1        0.0986
     31 C         140.6495  143.1859  166.0279 C.ar    1  UNL1        0.0221
     32 C         141.0358  142.4910  167.2999 C.ar    1  UNL1        0.0247
     33 C         142.4239  141.9473  167.4657 C.ar    1  UNL1        0.1527
     34 N         143.4257  142.0984  166.3595 N.ar    1  UNL1       -0.2402
     35 C         143.0394  142.7933  165.0876 C.ar    1  UNL1        0.0948
     36 C         142.8102  141.2525  168.7376 C.3     1  UNL1        0.4348
     37 F         143.1965  140.5575  170.0097 F       1  UNL1       -0.1644
     38 F         142.6643  142.5435  169.4872 F       1  UNL1       -0.1644
     39 F         142.9561  139.9614  167.9881 F       1  UNL1       -0.1644
@<TRIPOS>BOND
     1    12    13    2
     2    13    14    1
     3    14    15    1
     4    15    16    1
     5    16    17   ar
     6    17    18   ar
     7    18    19   ar
     8    19    11    1
     9    11     9    1
    10     9     1    1
    11     1     2    1
    12     2     3    1
    13     3     4    1
    14     4    24    1
    15    24    25    1
    16    25    26    1
    17    26    27   ar
    18    27    28   ar
    19    28    29   ar
    20    29    30   ar
    21    30    31   ar
    22    31    32   ar
    23    32    33   ar
    24    33    36    1
    25    36    37    1
    26    36    38    1
    27    36    39    1
    28    33    34   ar
    29    34    35   ar
    30     4     5    1
    31     5     6    1
    32     4     7    1
    33     7     8    1
    34    19    20   ar
    35    20    21   ar
    36    21    22    1
    37    22    13   am
    38    21    16   ar
    39     6     1    1
    40     8     1    1
    41    35    26   ar
    42    35    30   ar
    43     9    10    1
    44    22    23    1
@<TRIPOS>MOLECULE
*****
 39 44 0 0 0
SMALL
GASTEIGER

@<TRIPOS>ATOM
      1 C         141.4180  137.6633  162.2792 C.3     1  UNL1        0.0700
      2 C         139.9581  137.8811  162.0120 C.3     1  UNL1        0.0193
      3 C         138.9809  137.8925  163.1499 C.3     1  UNL1        0.0286
      4 C         139.4635  137.6861  164.5551 C.3     1  UNL1        0.0932
      5 C         140.9233  137.4683  164.8223 C.3     1  UNL1        0.0286
      6 C         141.9006  137.4569  163.6844 C.3     1  UNL1        0.0193
      7 O         140.0366  137.6716  163.9641 O.3     1  UNL1       -0.3572
      8 C         140.9203  137.6613  162.9352 C.3     1  UNL1        0.1562
      9 N         142.3952  137.6519  161.1413 N.3     1  UNL1       -0.2926
     10 H         142.7261  136.6917  161.0470 H       1  UNL1        0.1236
     11 C         143.6128  138.5268  161.1896 C.3     1  UNL1        0.1152
     12 O         145.2875  144.2631  166.1936 O.2     1  UNL1       -0.2707
     13 C         144.6058  143.7856  164.9456 C.2     1  UNL1        0.2718
     14 C         143.8006  144.7428  164.1178 C.3     1  UNL1        0.2898
     15 O         143.1189  144.2654  162.8699 O.3     1  UNL1       -0.4628
     16 C         143.2423  142.8308  162.4498 C.ar    1  UNL1        0.1708
     17 C         142.5606  142.3534  161.2019 C.ar    1  UNL1        0.0411
     18 C         142.6841  140.9187  160.7818 C.ar    1  UNL1        0.0193
     19 C         143.4893  139.9614  161.6096 C.ar    1  UNL1        0.0765
     20 N         144.1710  140.4388  162.8576 N.ar    1  UNL1       -0.2304
     21 C         144.0475  141.8736  163.2776 C.ar    1  UNL1        0.1682
     22 N         144.7293  142.3510  164.5256 N.am    1  UNL1       -0.2639
     23 H         145.2577  141.7227  165.0689 H       1  UNL1        0.1565
     24 C         138.4862  137.6975  165.6930 C.3     1  UNL1        0.0319
     25 C         137.9669  139.0012  166.2226 C.3     1  UNL1        0.0304
     26 C         138.9253  140.0526  166.6982 C.ar    1  UNL1       -0.0014
     27 C         139.5358  139.9481  168.0645 C.ar    1  UNL1        0.0179
     28 C         140.4941  140.9995  168.5401 C.ar    1  UNL1        0.0986
     29 N         140.8419  142.1553  167.6495 N.ar    1  UNL1       -0.2423
     30 C         140.2315  142.2598  166.2834 C.ar    1  UNL1        0.0986
     31 C         140.5794  143.4156  165.3929 C.ar    1  UNL1        0.0221
     32 C         139.9689  143.5201  164.0267 C.ar    1  UNL1        0.0247
     33 C         139.0105  142.4687  163.5511 C.ar    1  UNL1        0.1527
     34 N         138.6627  141.3129  164.4416 N.ar    1  UNL1       -0.2402
     35 C         139.2731  141.2084  165.8077 C.ar    1  UNL1        0.0948
     36 C         138.4001  142.5732  162.1849 C.3     1  UNL1        0.4348
     37 F         137.7896  142.6777  160.8187 F       1  UNL1       -0.1644
     38 F         137.5380  143.7063  162.6568 F       1  UNL1       -0.1644
     39 F         139.2622  141.4401  161.7130 F       1  UNL1       -0.1644
@<TRIPOS>BOND
     1    12    13    2
     2    13    14    1
     3    14    15    1
     4    15    16    1
     5    16    17   ar
     6    17    18   ar
     7    18    19   ar
     8    19    11    1
     9    11     9    1
    10     9     1    1
    11     1     2    1
    12     2     3    1
    13     3     4    1
    14     4    24    1
    15    24    25    1
    16    25    26    1
    17    26    27   ar
    18    27    28   ar
    19    28    29   ar
    20    29    30   ar
    21    30    31   ar
    22    31    32   ar
    23    32    33   ar
    24    33    36    1
    25    36    37    1
    26    36    38    1
    27    36    39    1
    28    33    34   ar
    29    34    35   ar
    30     4     5    1
    31     5     6    1
    32     4     7    1
    33     7     8    1
    34    19    20   ar
    35    20    21   ar
    36    21    22    1
    37    22    13   am
    38    21    16   ar
    39     6     1    1
    40     8     1    1
    41    35    26   ar
    42    35    30   ar
    43     9    10    1
    44    22    23    1
@<TRIPOS>MOLECULE
*****
 39 44 0 0 0
SMALL
GASTEIGER

@<TRIPOS>ATOM
      1 C         144.2553  139.7038  163.4333 C.3     1  UNL1        0.0700
      2 C         144.1080  139.1594  164.8232 C.3     1  UNL1        0.0193
      3 C         142.8882  138.3690  165.1938 C.3     1  UNL1        0.0286
      4 C         141.8157  138.1230  164.1744 C.3     1  UNL1        0.0932
      5 C         141.9630  138.6674  162.7844 C.3     1  UNL1        0.0286
      6 C         143.1829  139.4578  162.4139 C.3     1  UNL1        0.0193
      7 O         142.4660  138.5618  163.9246 O.3     1  UNL1       -0.3572
      8 C         143.5690  139.2765  163.5895 C.3     1  UNL1        0.1562
      9 N         145.4751  140.4942  163.0628 N.3     1  UNL1       -0.2926
     10 H         146.2641  140.0597  163.5414 H       1  UNL1        0.1236
     11 C         145.5389  141.9617  163.3668 C.3     1  UNL1        0.1152
     12 O         140.4379  145.6741  158.7899 O.2     1  UNL1       -0.2707
     13 C         140.9138  145.2888  160.1593 C.2     1  UNL1        0.2718
     14 C         140.1653  145.7558  161.3723 C.3     1  UNL1        0.2898
     15 O         140.6411  145.3706  162.7417 O.3     1  UNL1       -0.4628
     16 C         141.8656  144.5184  162.8980 C.ar    1  UNL1        0.1708
     17 C         142.3414  144.1332  164.2673 C.ar    1  UNL1        0.0411
     18 C         143.5659  143.2810  164.4236 C.ar    1  UNL1        0.0193
     19 C         144.3145  142.8139  163.2105 C.ar    1  UNL1        0.0765
     20 N         143.8386  143.1991  161.8412 N.ar    1  UNL1       -0.2304
     21 C         142.6141  144.0514  161.6849 C.ar    1  UNL1        0.1682
     22 N         142.1382  144.4366  160.3156 N.am    1  UNL1       -0.2639
     23 H         142.6295  144.1301  159.5194 H       1  UNL1        0.1565
     24 C         140.5959  137.3326  164.5449 C.3     1  UNL1        0.0319
     25 C         139.4686  137.9940  165.2810 C.3     1  UNL1        0.0304
     26 C         139.2674  139.4762  165.1694 C.ar    1  UNL1       -0.0014
     27 C         138.4228  140.0373  164.0640 C.ar    1  UNL1        0.0179
     28 C         138.2216  141.5195  163.9524 C.ar    1  UNL1        0.0986
     29 N         138.8650  142.4407  164.9462 N.ar    1  UNL1       -0.2423
     30 C         139.7096  141.8796  166.0515 C.ar    1  UNL1        0.0986
     31 C         140.3530  142.8008  167.0452 C.ar    1  UNL1        0.0221
     32 C         141.1976  142.2397  168.1506 C.ar    1  UNL1        0.0247
     33 C         141.3988  140.7575  168.2622 C.ar    1  UNL1        0.1527
     34 N         140.7554  139.8363  167.2685 N.ar    1  UNL1       -0.2402
     35 C         139.9108  140.3974  166.1631 C.ar    1  UNL1        0.0948
     36 C         142.2434  140.1964  169.3676 C.3     1  UNL1        0.4348
     37 F         143.0881  139.6353  170.4729 F       1  UNL1       -0.1644
     38 F         141.7281  141.2539  170.2981 F       1  UNL1       -0.1644
     39 F         142.7588  139.1389  168.4370 F       1  UNL1       -0.1644
@<TRIPOS>BOND
     1    12    13    2
     2    13    14    1
     3    14    15    1
     4    15    16    1
     5    16    17   ar
     6    17    18   ar
     7    18    19   ar
     8    19    11    1
     9    11     9    1
    10     9     1    1
    11     1     2    1
    12     2     3    1
    13     3     4    1
    14     4    24    1
    15    24    25    1
    16    25    26    1
    17    26    27   ar
    18    27    28   ar
    19    28    29   ar
    20    29    30   ar
    21    30    31   ar
    22    31    32   ar
    23    32    33   ar
    24    33    36    1
    25    36    37    1
    26    36    38    1
    27    36    39    1
    28    33    34   ar
    29    34    35   ar
    30     4     5    1
    31     5     6    1
    32     4     7    1
    33     7     8    1
    34    19    20   ar
    35    20    21   ar
    36    21    22    1
    37    22    13   am
    38    21    16   ar
    39     6     1    1
    40     8     1    1
    41    35    26   ar
    42    35    30   ar
    43     9    10    1
    44    22    23    1
@<TRIPOS>MOLECULE
*****
 39 44 0 0 0
SMALL
GASTEIGER

@<TRIPOS>ATOM
      1 C         137.7527  142.8948  162.5529 C.3     1  UNL1        0.0700
      2 C         138.0727  142.2897  161.2182 C.3     1  UNL1        0.0193
      3 C         138.1857  140.8007  161.0774 C.3     1  UNL1        0.0286
      4 C         137.9785  139.9166  162.2714 C.3     1  UNL1        0.0932
      5 C         137.6585  140.5217  163.6061 C.3     1  UNL1        0.0286
      6 C         137.5456  142.0108  163.7468 C.3     1  UNL1        0.0193
      7 O         137.9064  140.7270  162.3976 O.3     1  UNL1       -0.3572
      8 C         137.8043  142.0735  162.5249 C.3     1  UNL1        0.1562
      9 N         137.6398  144.3839  162.6936 N.3     1  UNL1       -0.2926
     10 H         137.2557  144.7343  161.8161 H       1  UNL1        0.1236
     11 C         138.8604  145.2039  162.9902 C.3     1  UNL1        0.1152
     12 O         145.4756  142.6066  159.7897 O.2     1  UNL1       -0.2707
     13 C         144.6066  142.8051  160.9962 C.2     1  UNL1        0.2718
     14 C         145.0738  142.3364  162.3422 C.3     1  UNL1        0.2898
     15 O         144.2049  142.5349  163.5487 O.3     1  UNL1       -0.4628
     16 C         142.8688  143.2022  163.4091 C.ar    1  UNL1        0.1708
     17 C         141.9998  143.4007  164.6155 C.ar    1  UNL1        0.0411
     18 C         140.6637  144.0679  164.4759 C.ar    1  UNL1        0.0193
     19 C         140.1965  144.5367  163.1298 C.ar    1  UNL1        0.0765
     20 N         141.0654  144.3382  161.9233 N.ar    1  UNL1       -0.2304
     21 C         142.4016  143.6709  162.0630 C.ar    1  UNL1        0.1682
     22 N         143.2705  143.4724  160.8565 N.am    1  UNL1       -0.2639
     23 H         142.9639  143.7801  159.9731 H       1  UNL1        0.1565
     24 C         138.0914  138.4275  162.1307 C.3     1  UNL1        0.0319
     25 C         139.0674  137.6659  162.9777 C.3     1  UNL1        0.0304
     26 C         140.5065  138.0862  163.0256 C.ar    1  UNL1       -0.0014
     27 C         141.4003  137.8369  161.8470 C.ar    1  UNL1        0.0179
     28 C         142.8394  138.2572  161.8949 C.ar    1  UNL1        0.0986
     29 N         143.3847  138.9269  163.1214 N.ar    1  UNL1       -0.2423
     30 C         142.4910  139.1762  164.2999 C.ar    1  UNL1        0.0986
     31 C         143.0363  139.8459  165.5263 C.ar    1  UNL1        0.0221
     32 C         142.1425  140.0952  166.7049 C.ar    1  UNL1        0.0247
     33 C         140.7034  139.6749  166.6570 C.ar    1  UNL1        0.1527
     34 N         140.1581  139.0053  165.4306 N.ar    1  UNL1       -0.2402
     35 C         141.0518  138.7559  164.2520 C.ar    1  UNL1        0.0948
     36 C         139.8097  139.9243  167.8356 C.3     1  UNL1        0.4348
     37 F         138.9159  140.1737  169.0141 F       1  UNL1       -0.1644
     38 F         141.0090  139.9703  168.7353 F       1  UNL1       -0.1644
     39 F         138.6104  139.8783  166.9358 F       1  UNL1       -0.1644
@<TRIPOS>BOND
     1    12    13    2
     2    13    14    1
     3    14    15    1
     4    15    16    1
     5    16    17   ar
     6    17    18   ar
     7    18    19   ar
     8    19    11    1
     9    11     9    1
    10     9     1    1
    11     1     2    1
    12     2     3    1
    13     3     4    1
    14     4    24    1
    15    24    25    1
    16    25    26    1
    17    26    27   ar
    18    27    28   ar
    19    28    29   ar
    20    29    30   ar
    21    30    31   ar
    22    31    32   ar
    23    32    33   ar
    24    33    36    1
    25    36    37    1
    26    36    38    1
    27    36    39    1
    28    33    34   ar
    29    34    35   ar
    30     4     5    1
    31     5     6    1
    32     4     7    1
    33     7     8    1
    34    19    20   ar
    35    20    21   ar
    36    21    22    1
    37    22    13   am
    38    21    16   ar
    39     6     1    1
    40     8     1    1
    41    35    26   ar
    42    35    30   ar
    43     9    10    1
    44    22    23    1
@<TRIPOS>MOLECULE
*****
 39 44 0 0 0
SMALL
GASTEIGER

@<TRIPOS>ATOM
      1 C         139.3689  137.9568  162.8035 C.3     1  UNL1        0.0700
      2 C         140.7652  138.1338  162.2847 C.3     1  UNL1        0.0193
      3 C         141.8789  138.4747  163.2299 C.3     1  UNL1        0.0286
      4 C         141.5964  138.6387  164.6939 C.3     1  UNL1        0.0932
      5 C         140.2001  138.4617  165.2127 C.3     1  UNL1        0.0286
      6 C         139.0864  138.1208  164.2675 C.3     1  UNL1        0.0193
      7 O         140.9536  138.4516  164.2146 O.3     1  UNL1       -0.3572
      8 C         139.9465  138.1434  163.3599 C.3     1  UNL1        0.1562
      9 N         138.2552  137.6159  161.8584 N.3     1  UNL1       -0.2926
     10 H         138.6858  137.1917  161.0367 H       1  UNL1        0.1236
     11 C         137.3387  138.6934  161.3593 C.3     1  UNL1        0.1152
     12 O         141.2364  144.1295  157.3584 O.2     1  UNL1       -0.2707
     13 C         140.4366  143.7258  158.5615 C.2     1  UNL1        0.2718
     14 C         140.1362  144.7305  159.6339 C.3     1  UNL1        0.2898
     15 O         139.3364  144.3269  160.8370 O.3     1  UNL1       -0.4628
     16 C         138.8369  142.9186  160.9676 C.ar    1  UNL1        0.1708
     17 C         138.0371  142.5149  162.1706 C.ar    1  UNL1        0.0411
     18 C         137.5377  141.1066  162.3012 C.ar    1  UNL1        0.0193
     19 C         137.8381  140.1018  161.2287 C.ar    1  UNL1        0.0765
     20 N         138.6379  140.5054  160.0257 N.ar    1  UNL1       -0.2304
     21 C         139.1374  141.9139  159.8951 C.ar    1  UNL1        0.1682
     22 N         139.9372  142.3175  158.6920 N.am    1  UNL1       -0.2639
     23 H         140.1344  141.6580  157.9881 H       1  UNL1        0.1565
     24 C         142.7101  138.9796  165.6391 C.3     1  UNL1        0.0319
     25 C         143.0445  140.4151  165.9174 C.3     1  UNL1        0.0304
     26 C         143.6538  141.2653  164.8423 C.ar    1  UNL1       -0.0014
     27 C         144.9821  140.8924  164.2537 C.ar    1  UNL1        0.0179
     28 C         145.5914  141.7426  163.1786 C.ar    1  UNL1        0.0986
     29 N         144.8723  142.9658  162.6921 N.ar    1  UNL1       -0.2423
     30 C         143.5440  143.3388  163.2806 C.ar    1  UNL1        0.0986
     31 C         142.8249  144.5620  162.7941 C.ar    1  UNL1        0.0221
     32 C         141.4966  144.9350  163.3827 C.ar    1  UNL1        0.0247
     33 C         140.8873  144.0847  164.4578 C.ar    1  UNL1        0.1527
     34 N         141.6064  142.8615  164.9444 N.ar    1  UNL1       -0.2402
     35 C         142.9347  142.4885  164.3558 C.ar    1  UNL1        0.0948
     36 C         139.5590  144.4577  165.0464 C.3     1  UNL1        0.4348
     37 F         138.2306  144.8307  165.6350 F       1  UNL1       -0.1644
     38 F         139.8719  143.6449  166.2676 F       1  UNL1       -0.1644
     39 F         139.2461  145.2705  163.8252 F       1  UNL1       -0.1644
@<TRIPOS>BOND
     1    12    13    2
     2    13    14    1
     3    14    15    1
     4    15    16    1
     5    16    17   ar
     6    17    18   ar
     7    18    19   ar
     8    19    11    1
     9    11     9    1
    10     9     1    1
    11     1     2    1
    12     2     3    1
    13     3     4    1
    14     4    24    1
    15    24    25    1
    16    25    26    1
    17    26    27   ar
    18    27    28   ar
    19    28    29   ar
    20    29    30   ar
    21    30    31   ar
    22    31    32   ar
    23    32    33   ar
    24    33    36    1
    25    36    37    1
    26    36    38    1
    27    36    39    1
    28    33    34   ar
    29    34    35   ar
    30     4     5    1
    31     5     6    1
    32     4     7    1
    33     7     8    1
    34    19    20   ar
    35    20    21   ar
    36    21    22    1
    37    22    13   am
    38    21    16   ar
    39     6     1    1
    40     8     1    1
    41    35    26   ar
    42    35    30   ar
    43     9    10    1
    44    22    23    1
