@<TRIPOS>MOLECULE
*****
 32 34 0 0 0
SMALL
GASTEIGER

@<TRIPOS>ATOM
      1 C         142.5571  141.6956  167.5023 C.ar    1  UNL1        0.1300
      2 N         143.5009  142.4860  168.3592 N.ar    1  UNL1       -0.1995
      3 C         143.2110  142.6726  169.8191 C.ar    1  UNL1        0.2145
      4 N         144.1550  143.4631  170.6761 N.pl3   1  UNL1       -0.3274
      5 N         141.9773  142.0690  170.4219 N.ar    1  UNL1       -0.2185
      6 C         141.0334  141.2786  169.5650 C.ar    1  UNL1        0.0639
      7 C         141.3233  141.0919  168.1051 C.ar    1  UNL1        0.0429
      8 C         140.3794  140.3015  167.2481 C.3     1  UNL1        0.1244
      9 N         139.1457  139.6979  167.8510 N.am    1  UNL1       -0.2702
     10 C         138.2018  138.9074  166.9940 C.2     1  UNL1        0.2675
     11 O         136.9681  138.3038  167.5969 O.2     1  UNL1       -0.2682
     12 C         138.8559  139.8845  169.3109 C.3     1  UNL1        0.1004
     13 C         139.7997  140.6749  170.1678 C.3     1  UNL1        0.0672
     14 H         144.9647  143.8593  170.2804 H       1  UNL1        0.1452
     15 H         143.9647  143.5856  171.6342 H       1  UNL1        0.1452
     16 C         138.4917  138.7208  165.5342 C.ar    1  UNL1        0.1413
     17 C         139.1403  137.5207  164.9105 C.ar    1  UNL1        0.0603
     18 S         139.2333  137.7596  163.4325 S.2     1  UNL1       -0.0701
     19 C         138.6422  139.1074  163.1428 C.ar    1  UNL1        0.0888
     20 C         138.5292  139.7487  161.7915 C.3     1  UNL1        0.0594
     21 N         138.1838  139.7014  164.4417 N.ar    1  UNL1       -0.2381
     22 N         142.8469  141.5089  166.0424 N.pl3   1  UNL1       -0.3197
     23 H         142.8166  140.6084  165.6458 H       1  UNL1        0.1481
     24 C         143.1830  142.6943  165.1870 C.3     1  UNL1        0.0728
     25 C         142.1011  143.6405  164.7579 C.3     1  UNL1        0.0196
     26 C         140.6754  143.1768  164.7082 C.3     1  UNL1        0.0017
     27 C         138.6970  144.7517  165.3044 C.3     1  UNL1        0.0000
     28 C         139.6829  143.6951  165.7064 C.3     1  UNL1        0.0001
     29 C         144.6012  142.9335  164.7605 C.3     1  UNL1        0.0512
     30 C         145.0668  142.4713  163.4116 C.3     1  UNL1        0.1389
     31 O         146.3982  141.7953  163.2689 O.3     1  UNL1       -0.3819
     32 H         147.1050  142.4261  163.4773 H       1  UNL1        0.2104
@<TRIPOS>BOND
     1    27    28    1
     2    28    26    1
     3    26    25    1
     4    24    25    1
     5    24    29    1
     6    29    30    1
     7    30    31    1
     8    24    22    1
     9    22     1    1
    10     1     2   ar
    11     2     3   ar
    12     3     4    1
    13     3     5   ar
    14     5     6   ar
    15     6     7   ar
    16     7     8    1
    17     8     9    1
    18     9    10   am
    19    10    11    2
    20    10    16    1
    21    16    17   ar
    22    17    18   ar
    23    18    19   ar
    24    19    20    1
    25    19    21   ar
    26     9    12    1
    27    12    13    1
    28     7     1   ar
    29    21    16   ar
    30    13     6    1
    31    31    32    1
    32    22    23    1
    33     4    14    1
    34     4    15    1
@<TRIPOS>MOLECULE
*****
 32 34 0 0 0
SMALL
GASTEIGER

@<TRIPOS>ATOM
      1 C         142.5509  141.7460  167.4947 C.ar    1  UNL1        0.1300
      2 N         143.4869  142.5390  168.3578 N.ar    1  UNL1       -0.1995
      3 C         143.1957  142.7109  169.8191 C.ar    1  UNL1        0.2145
      4 N         144.1318  143.5040  170.6822 N.pl3   1  UNL1       -0.3274
      5 N         141.9685  142.0897  170.4175 N.ar    1  UNL1       -0.2185
      6 C         141.0324  141.2966  169.5544 C.ar    1  UNL1        0.0639
      7 C         141.3236  141.1247  168.0930 C.ar    1  UNL1        0.0429
      8 C         140.3876  140.3317  167.2300 C.3     1  UNL1        0.1244
      9 N         139.1604  139.7105  167.8283 N.am    1  UNL1       -0.2702
     10 C         138.2243  138.9175  166.9652 C.2     1  UNL1        0.2675
     11 O         136.9971  138.2963  167.5636 O.2     1  UNL1       -0.2682
     12 C         138.8692  139.8824  169.2897 C.3     1  UNL1        0.1004
     13 C         139.8052  140.6754  170.1527 C.3     1  UNL1        0.0672
     14 H         144.9373  143.9117  170.2895 H       1  UNL1        0.1452
     15 H         143.9407  143.6168  171.6414 H       1  UNL1        0.1452
     16 C         138.5155  138.7456  165.5038 C.ar    1  UNL1        0.1413
     17 C         139.2324  137.5861  164.8781 C.ar    1  UNL1        0.0603
     18 S         139.3009  137.8269  163.3991 S.2     1  UNL1       -0.0701
     19 C         138.6263  139.1353  163.1108 C.ar    1  UNL1        0.0888
     20 C         138.4653  139.7653  161.7591 C.3     1  UNL1        0.0594
     21 N         138.1409  139.7030  164.4116 N.ar    1  UNL1       -0.2381
     22 N         142.8421  141.5741  166.0333 N.pl3   1  UNL1       -0.3197
     23 H         142.8436  140.6741  165.6342 H       1  UNL1        0.1481
     24 C         143.1309  142.7734  165.1800 C.3     1  UNL1        0.0728
     25 C         144.5475  143.1215  164.8304 C.3     1  UNL1        0.0196
     26 C         145.4510  142.0812  164.2376 C.3     1  UNL1        0.0017
     27 C         144.5341  139.8713  163.2248 C.3     1  UNL1        0.0000
     28 C         145.0003  141.2860  163.0482 C.3     1  UNL1        0.0001
     29 C         142.0032  143.6247  164.6763 C.3     1  UNL1        0.0512
     30 C         142.2074  144.5111  163.4836 C.3     1  UNL1        0.1389
     31 O         141.6667  145.9102  163.4876 O.3     1  UNL1       -0.3819
     32 H         140.6972  145.8821  163.5049 H       1  UNL1        0.2104
@<TRIPOS>BOND
     1    27    28    1
     2    28    26    1
     3    26    25    1
     4    24    25    1
     5    24    29    1
     6    29    30    1
     7    30    31    1
     8    24    22    1
     9    22     1    1
    10     1     2   ar
    11     2     3   ar
    12     3     4    1
    13     3     5   ar
    14     5     6   ar
    15     6     7   ar
    16     7     8    1
    17     8     9    1
    18     9    10   am
    19    10    11    2
    20    10    16    1
    21    16    17   ar
    22    17    18   ar
    23    18    19   ar
    24    19    20    1
    25    19    21   ar
    26     9    12    1
    27    12    13    1
    28     7     1   ar
    29    21    16   ar
    30    13     6    1
    31    31    32    1
    32    22    23    1
    33     4    14    1
    34     4    15    1
@<TRIPOS>MOLECULE
*****
 32 34 0 0 0
SMALL
GASTEIGER

@<TRIPOS>ATOM
      1 C         142.6278  141.8380  167.0922 C.ar    1  UNL1        0.1300
      2 N         143.6468  142.5003  167.9713 N.ar    1  UNL1       -0.1995
      3 C         143.4887  142.4629  169.4625 C.ar    1  UNL1        0.2145
      4 N         144.5079  143.1253  170.3415 N.pl3   1  UNL1       -0.3274
      5 N         142.3116  141.7632  170.0746 N.ar    1  UNL1       -0.2185
      6 C         141.2925  141.1008  169.1955 C.ar    1  UNL1        0.0639
      7 C         141.4506  141.1382  167.7043 C.ar    1  UNL1        0.0429
      8 C         140.4315  140.4759  166.8252 C.3     1  UNL1        0.1244
      9 N         139.2544  139.7761  167.4374 N.am    1  UNL1       -0.2702
     10 C         138.2353  139.1137  166.5583 C.2     1  UNL1        0.2675
     11 O         137.0582  138.4140  167.1704 O.2     1  UNL1       -0.2682
     12 C         139.0963  139.7387  168.9285 C.3     1  UNL1        0.1004
     13 C         140.1154  140.4011  169.8076 C.3     1  UNL1        0.0672
     14 H         145.2805  143.5846  169.9398 H       1  UNL1        0.1452
     15 H         144.4041  143.1008  171.3203 H       1  UNL1        0.1452
     16 C         138.3933  139.1511  165.0671 C.ar    1  UNL1        0.1413
     17 C         139.0025  138.0752  164.2178 C.ar    1  UNL1        0.0603
     18 S         138.9556  138.5301  162.7892 S.2     1  UNL1       -0.0701
     19 C         138.3175  139.8872  162.7556 C.ar    1  UNL1        0.0888
     20 C         138.0703  140.7152  161.5295 C.3     1  UNL1        0.0594
     21 N         137.9700  140.2710  164.1634 N.ar    1  UNL1       -0.2381
     22 N         142.7858  141.8754  165.6010 N.pl3   1  UNL1       -0.3197
     23 H         142.0718  141.5242  165.0214 H       1  UNL1        0.1481
     24 C         144.0318  142.4479  164.9930 C.3     1  UNL1        0.0728
     25 C         144.3203  143.9148  165.1151 C.3     1  UNL1        0.0196
     26 C         143.7805  144.8728  164.0948 C.3     1  UNL1        0.0017
     27 C         141.3386  145.2025  163.2713 C.3     1  UNL1        0.0000
     28 C         142.6416  144.4622  163.2092 C.3     1  UNL1        0.0001
     29 C         144.9894  141.5534  164.2629 C.3     1  UNL1        0.0512
     30 C         144.7893  140.0670  164.2806 C.3     1  UNL1        0.1389
     31 O         144.8233  139.2904  162.9978 O.3     1  UNL1       -0.3819
     32 H         144.0706  139.5489  162.4432 H       1  UNL1        0.2104
@<TRIPOS>BOND
     1    27    28    1
     2    28    26    1
     3    26    25    1
     4    24    25    1
     5    24    29    1
     6    29    30    1
     7    30    31    1
     8    24    22    1
     9    22     1    1
    10     1     2   ar
    11     2     3   ar
    12     3     4    1
    13     3     5   ar
    14     5     6   ar
    15     6     7   ar
    16     7     8    1
    17     8     9    1
    18     9    10   am
    19    10    11    2
    20    10    16    1
    21    16    17   ar
    22    17    18   ar
    23    18    19   ar
    24    19    20    1
    25    19    21   ar
    26     9    12    1
    27    12    13    1
    28     7     1   ar
    29    21    16   ar
    30    13     6    1
    31    31    32    1
    32    22    23    1
    33     4    14    1
    34     4    15    1
@<TRIPOS>MOLECULE
*****
 32 34 0 0 0
SMALL
GASTEIGER

@<TRIPOS>ATOM
      1 C         142.6368  141.9116  167.0645 C.ar    1  UNL1        0.1300
      2 N         143.6669  142.5484  167.9495 N.ar    1  UNL1       -0.1995
      3 C         143.5318  142.4610  169.4408 C.ar    1  UNL1        0.2145
      4 N         144.5620  143.0978  170.3259 N.pl3   1  UNL1       -0.3274
      5 N         142.3665  141.7368  170.0472 N.ar    1  UNL1       -0.2185
      6 C         141.3363  141.1000  169.1621 C.ar    1  UNL1        0.0639
      7 C         141.4715  141.1874  167.6708 C.ar    1  UNL1        0.0429
      8 C         140.4413  140.5506  166.7858 C.3     1  UNL1        0.1244
      9 N         139.2761  139.8264  167.3921 N.am    1  UNL1       -0.2702
     10 C         138.2459  139.1896  166.5071 C.2     1  UNL1        0.2675
     11 O         137.0806  138.4654  167.1134 O.2     1  UNL1       -0.2682
     12 C         139.1409  139.7390  168.8834 C.3     1  UNL1        0.1004
     13 C         140.1711  140.3758  169.7685 C.3     1  UNL1        0.0672
     14 H         145.3268  143.5731  169.9279 H       1  UNL1        0.1452
     15 H         144.4734  143.0405  171.3047 H       1  UNL1        0.1452
     16 C         138.3810  139.2770  165.0157 C.ar    1  UNL1        0.1413
     17 C         137.9710  140.4387  164.1598 C.ar    1  UNL1        0.0603
     18 S         138.2865  140.0977  162.7336 S.2     1  UNL1       -0.0701
     19 C         138.8914  138.7253  162.7079 C.ar    1  UNL1        0.0888
     20 C         139.3563  137.9894  161.4864 C.3     1  UNL1        0.0594
     21 N         138.9498  138.2182  164.1184 N.ar    1  UNL1       -0.2381
     22 N         142.7719  141.9990  165.5731 N.pl3   1  UNL1       -0.3197
     23 H         142.1837  142.5988  165.0599 H       1  UNL1        0.1481
     24 C         143.8033  141.1726  164.8638 C.3     1  UNL1        0.0728
     25 C         143.8672  139.6920  165.0957 C.3     1  UNL1        0.0196
     26 C         142.7502  138.8098  164.6222 C.3     1  UNL1        0.0017
     27 C         143.8811  138.5375  162.2991 C.3     1  UNL1        0.0000
     28 C         142.6742  138.4049  163.1799 C.3     1  UNL1        0.0001
     29 C         144.7709  141.8268  163.9225 C.3     1  UNL1        0.0512
     30 C         144.4939  143.2055  163.4007 C.3     1  UNL1        0.1389
     31 O         144.9356  143.5872  162.0190 O.3     1  UNL1       -0.3819
     32 H         145.9048  143.5900  161.9786 H       1  UNL1        0.2104
@<TRIPOS>BOND
     1    27    28    1
     2    28    26    1
     3    26    25    1
     4    24    25    1
     5    24    29    1
     6    29    30    1
     7    30    31    1
     8    24    22    1
     9    22     1    1
    10     1     2   ar
    11     2     3   ar
    12     3     4    1
    13     3     5   ar
    14     5     6   ar
    15     6     7   ar
    16     7     8    1
    17     8     9    1
    18     9    10   am
    19    10    11    2
    20    10    16    1
    21    16    17   ar
    22    17    18   ar
    23    18    19   ar
    24    19    20    1
    25    19    21   ar
    26     9    12    1
    27    12    13    1
    28     7     1   ar
    29    21    16   ar
    30    13     6    1
    31    31    32    1
    32    22    23    1
    33     4    14    1
    34     4    15    1
@<TRIPOS>MOLECULE
*****
 32 34 0 0 0
SMALL
GASTEIGER

@<TRIPOS>ATOM
      1 C         140.6967  142.4522  167.7490 C.ar    1  UNL1        0.1300
      2 N         139.9520  143.2745  168.7585 N.ar    1  UNL1       -0.1995
      3 C         139.9464  142.8658  170.2017 C.ar    1  UNL1        0.2145
      4 N         139.2017  143.6882  171.2112 N.pl3   1  UNL1       -0.3274
      5 N         140.6855  141.6347  170.6354 N.ar    1  UNL1       -0.2185
      6 C         141.4302  140.8123  169.6259 C.ar    1  UNL1        0.0639
      7 C         141.4358  141.2210  168.1827 C.ar    1  UNL1        0.0429
      8 C         142.1805  140.3987  167.1732 C.3     1  UNL1        0.1244
      9 N         142.9196  139.1676  167.6069 N.am    1  UNL1       -0.2702
     10 C         143.6643  138.3452  166.5974 C.2     1  UNL1        0.2675
     11 O         144.4034  137.1141  167.0311 O.2     1  UNL1       -0.2682
     12 C         142.9140  138.7588  169.0501 C.3     1  UNL1        0.1004
     13 C         142.1693  139.5812  170.0596 C.3     1  UNL1        0.0672
     14 H         138.7166  144.4962  170.9265 H       1  UNL1        0.1452
     15 H         139.1980  143.4200  172.1585 H       1  UNL1        0.1452
     16 C         143.6699  138.7539  165.1542 C.ar    1  UNL1        0.1413
     17 C         144.7076  139.6037  164.4825 C.ar    1  UNL1        0.0603
     18 S         144.3179  139.7596  163.0424 S.2     1  UNL1       -0.0701
     19 C         143.0393  139.0062  162.8240 C.ar    1  UNL1        0.0888
     20 C         142.2924  138.8940  161.5281 C.3     1  UNL1        0.0594
     21 N         142.6389  138.3846  164.1292 N.ar    1  UNL1       -0.2381
     22 N         140.7023  142.8609  166.3058 N.pl3   1  UNL1       -0.3197
     23 H         141.5458  143.1256  165.8724 H       1  UNL1        0.1481
     24 C         139.4229  142.8664  165.5228 C.3     1  UNL1        0.0728
     25 C         138.7736  144.1678  165.1561 C.3     1  UNL1        0.0196
     26 C         139.3425  145.0040  164.0482 C.3     1  UNL1        0.0017
     27 C         141.9066  145.2751  163.7290 C.3     1  UNL1        0.0000
     28 C         140.6188  144.5914  163.3768 C.3     1  UNL1        0.0001
     29 C         138.7928  141.5703  165.1065 C.3     1  UNL1        0.0512
     30 C         138.2744  141.4032  163.7090 C.3     1  UNL1        0.1389
     31 O         136.7971  141.4236  163.4497 O.3     1  UNL1       -0.3819
     32 H         136.3845  140.6524  163.8692 H       1  UNL1        0.2104
@<TRIPOS>BOND
     1    27    28    1
     2    28    26    1
     3    26    25    1
     4    24    25    1
     5    24    29    1
     6    29    30    1
     7    30    31    1
     8    24    22    1
     9    22     1    1
    10     1     2   ar
    11     2     3   ar
    12     3     4    1
    13     3     5   ar
    14     5     6   ar
    15     6     7   ar
    16     7     8    1
    17     8     9    1
    18     9    10   am
    19    10    11    2
    20    10    16    1
    21    16    17   ar
    22    17    18   ar
    23    18    19   ar
    24    19    20    1
    25    19    21   ar
    26     9    12    1
    27    12    13    1
    28     7     1   ar
    29    21    16   ar
    30    13     6    1
    31    31    32    1
    32    22    23    1
    33     4    14    1
    34     4    15    1
@<TRIPOS>MOLECULE
*****
 32 34 0 0 0
SMALL
GASTEIGER

@<TRIPOS>ATOM
      1 C         139.6802  139.8754  166.7685 C.ar    1  UNL1        0.1300
      2 N         138.5887  139.2419  167.5791 N.ar    1  UNL1       -0.1995
      3 C         137.8325  138.0680  167.0312 C.ar    1  UNL1        0.2145
      4 N         136.7410  137.4344  167.8420 N.pl3   1  UNL1       -0.3274
      5 N         138.1679  137.5277  165.6727 N.ar    1  UNL1       -0.2185
      6 C         139.2594  138.1613  164.8620 C.ar    1  UNL1        0.0639
      7 C         140.0156  139.3351  165.4099 C.ar    1  UNL1        0.0429
      8 C         141.1071  139.9687  164.5993 C.3     1  UNL1        0.1244
      9 N         141.4424  139.4284  163.2408 N.am    1  UNL1       -0.2702
     10 C         142.5339  140.0620  162.4301 C.2     1  UNL1        0.2675
     11 O         142.8692  139.5217  161.0715 O.2     1  UNL1       -0.2682
     12 C         140.6862  138.2545  162.6929 C.3     1  UNL1        0.1004
     13 C         139.5947  137.6210  163.5035 C.3     1  UNL1        0.0672
     14 H         136.5209  137.7890  168.7336 H       1  UNL1        0.1452
     15 H         136.2447  136.6639  167.4824 H       1  UNL1        0.1452
     16 C         143.2901  141.2359  162.9779 C.ar    1  UNL1        0.1413
     17 C         144.6060  141.1799  163.6958 C.ar    1  UNL1        0.0603
     18 S         144.9924  142.5813  164.0657 S.2     1  UNL1       -0.0701
     19 C         143.9152  143.5035  163.5764 C.ar    1  UNL1        0.0888
     20 C         143.8938  144.9952  163.7321 C.3     1  UNL1        0.0594
     21 N         142.8632  142.6720  162.9042 N.ar    1  UNL1       -0.2381
     22 N         140.4364  141.0493  167.3164 N.pl3   1  UNL1       -0.3197
     23 H         140.0571  141.9552  167.2467 H       1  UNL1        0.1481
     24 C         141.7705  140.8431  167.9704 C.3     1  UNL1        0.0728
     25 C         142.7132  141.9986  168.1319 C.3     1  UNL1        0.0196
     26 C         142.7695  142.7444  169.4322 C.3     1  UNL1        0.0017
     27 C         140.4581  143.8670  169.8159 C.3     1  UNL1        0.0000
     28 C         141.5269  142.9109  170.2558 C.3     1  UNL1        0.0001
     29 C         142.1618  139.4813  168.4628 C.3     1  UNL1        0.0512
     30 C         142.0794  139.1605  169.9258 C.3     1  UNL1        0.1389
     31 O         143.2838  139.3394  170.8018 O.3     1  UNL1       -0.3819
     32 H         143.9730  138.7106  170.5362 H       1  UNL1        0.2104
@<TRIPOS>BOND
     1    27    28    1
     2    28    26    1
     3    26    25    1
     4    24    25    1
     5    24    29    1
     6    29    30    1
     7    30    31    1
     8    24    22    1
     9    22     1    1
    10     1     2   ar
    11     2     3   ar
    12     3     4    1
    13     3     5   ar
    14     5     6   ar
    15     6     7   ar
    16     7     8    1
    17     8     9    1
    18     9    10   am
    19    10    11    2
    20    10    16    1
    21    16    17   ar
    22    17    18   ar
    23    18    19   ar
    24    19    20    1
    25    19    21   ar
    26     9    12    1
    27    12    13    1
    28     7     1   ar
    29    21    16   ar
    30    13     6    1
    31    31    32    1
    32    22    23    1
    33     4    14    1
    34     4    15    1
@<TRIPOS>MOLECULE
*****
 32 34 0 0 0
SMALL
GASTEIGER

@<TRIPOS>ATOM
      1 C         139.6232  140.5256  166.7534 C.ar    1  UNL1        0.1300
      2 N         139.3417  139.9508  168.1100 N.ar    1  UNL1       -0.1995
      3 C         140.3399  140.1176  169.2171 C.ar    1  UNL1        0.2145
      4 N         140.0583  139.5428  170.5737 N.pl3   1  UNL1       -0.3274
      5 N         141.6197  140.8591  168.9676 N.ar    1  UNL1       -0.2185
      6 C         141.9013  141.4339  167.6110 C.ar    1  UNL1        0.0639
      7 C         140.9031  141.2671  166.5039 C.ar    1  UNL1        0.0429
      8 C         141.1846  141.8418  165.1473 C.3     1  UNL1        0.1244
      9 N         142.4644  142.5833  164.8978 N.am    1  UNL1       -0.2702
     10 C         142.7460  143.1581  163.5412 C.2     1  UNL1        0.2675
     11 O         144.0258  143.8996  163.2918 O.2     1  UNL1       -0.2682
     12 C         143.4626  142.7501  166.0050 C.3     1  UNL1        0.1004
     13 C         143.1811  142.1754  167.3616 C.3     1  UNL1        0.0672
     14 H         139.2183  139.0561  170.7375 H       1  UNL1        0.1452
     15 H         140.7134  139.6522  171.3004 H       1  UNL1        0.1452
     16 C         141.7478  142.9914  162.4341 C.ar    1  UNL1        0.1413
     17 C         140.6954  143.9844  162.0388 C.ar    1  UNL1        0.0603
     18 S         139.9239  143.4091  160.8883 S.2     1  UNL1       -0.0701
     19 C         140.4995  142.0604  160.5724 C.ar    1  UNL1        0.0888
     20 C         140.0302  141.1327  159.4911 C.3     1  UNL1        0.0594
     21 N         141.6267  141.8023  161.5278 N.ar    1  UNL1       -0.2381
     22 N         138.6250  140.3588  165.6463 N.pl3   1  UNL1       -0.3197
     23 H         137.8812  140.9972  165.5538 H       1  UNL1        0.1481
     24 C         138.7599  139.2194  164.6801 C.3     1  UNL1        0.0728
     25 C         139.2503  137.8848  165.1580 C.3     1  UNL1        0.0196
     26 C         140.5533  137.3397  164.6527 C.3     1  UNL1        0.0017
     27 C         142.7905  138.2703  165.5902 C.3     1  UNL1        0.0000
     28 C         141.7425  138.2439  164.5174 C.3     1  UNL1        0.0001
     29 C         138.4045  139.4146  163.2359 C.3     1  UNL1        0.0512
     30 C         137.9140  140.7491  162.7579 C.3     1  UNL1        0.1389
     31 O         136.6109  141.2939  163.2628 O.3     1  UNL1       -0.3819
     32 H         135.8835  140.7327  162.9516 H       1  UNL1        0.2104
@<TRIPOS>BOND
     1    27    28    1
     2    28    26    1
     3    26    25    1
     4    24    25    1
     5    24    29    1
     6    29    30    1
     7    30    31    1
     8    24    22    1
     9    22     1    1
    10     1     2   ar
    11     2     3   ar
    12     3     4    1
    13     3     5   ar
    14     5     6   ar
    15     6     7   ar
    16     7     8    1
    17     8     9    1
    18     9    10   am
    19    10    11    2
    20    10    16    1
    21    16    17   ar
    22    17    18   ar
    23    18    19   ar
    24    19    20    1
    25    19    21   ar
    26     9    12    1
    27    12    13    1
    28     7     1   ar
    29    21    16   ar
    30    13     6    1
    31    31    32    1
    32    22    23    1
    33     4    14    1
    34     4    15    1
@<TRIPOS>MOLECULE
*****
 32 34 0 0 0
SMALL
GASTEIGER

@<TRIPOS>ATOM
      1 C         138.9689  140.1983  165.4709 C.ar    1  UNL1        0.1300
      2 N         137.9801  139.4882  166.3472 N.ar    1  UNL1       -0.1995
      3 C         137.9871  137.9902  166.4249 C.ar    1  UNL1        0.2145
      4 N         136.9982  137.2801  167.3013 N.pl3   1  UNL1       -0.3274
      5 N         138.9828  137.2024  165.6263 N.ar    1  UNL1       -0.2185
      6 C         139.9717  137.9125  164.7500 C.ar    1  UNL1        0.0639
      7 C         139.9647  139.4105  164.6722 C.ar    1  UNL1        0.0429
      8 C         140.9535  140.1206  163.7959 C.3     1  UNL1        0.1244
      9 N         141.9492  139.3328  162.9974 N.am    1  UNL1       -0.2702
     10 C         142.9381  140.0429  162.1210 C.2     1  UNL1        0.2675
     11 O         143.9338  139.2551  161.3224 O.2     1  UNL1       -0.2682
     12 C         141.9562  137.8348  163.0751 C.3     1  UNL1        0.1004
     13 C         140.9674  137.1247  163.9514 C.3     1  UNL1        0.0672
     14 H         136.3447  137.7972  167.8254 H       1  UNL1        0.1452
     15 H         137.0028  136.2969  167.3523 H       1  UNL1        0.1452
     16 C         142.9312  141.5409  162.0433 C.ar    1  UNL1        0.1413
     17 C         142.3159  142.3643  160.9508 C.ar    1  UNL1        0.0603
     18 S         142.5427  143.8108  161.2767 S.2     1  UNL1       -0.0701
     19 C         143.2982  143.8814  162.5706 C.ar    1  UNL1        0.0888
     20 C         143.7367  145.1348  163.2683 C.3     1  UNL1        0.0594
     21 N         143.5383  142.4785  163.0443 N.ar    1  UNL1       -0.2381
     22 N         138.9620  141.6963  165.3932 N.pl3   1  UNL1       -0.3197
     23 H         139.5700  142.2216  165.9620 H       1  UNL1        0.1481
     24 C         138.0286  142.3940  164.4487 C.3     1  UNL1        0.0728
     25 C         137.2811  141.6060  163.4142 C.3     1  UNL1        0.0196
     26 C         137.9335  141.2806  162.1032 C.3     1  UNL1        0.0017
     27 C         138.7838  139.0823  161.0105 C.3     1  UNL1        0.0000
     28 C         137.6503  139.9708  161.4292 C.3     1  UNL1        0.0001
     29 C         137.8427  143.8798  164.5388 C.3     1  UNL1        0.0512
     30 C         138.9588  144.7461  165.0425 C.3     1  UNL1        0.1389
     31 O         139.9304  145.3550  164.0754 O.3     1  UNL1       -0.3819
     32 H         140.4484  144.6527  163.6521 H       1  UNL1        0.2104
@<TRIPOS>BOND
     1    27    28    1
     2    28    26    1
     3    26    25    1
     4    24    25    1
     5    24    29    1
     6    29    30    1
     7    30    31    1
     8    24    22    1
     9    22     1    1
    10     1     2   ar
    11     2     3   ar
    12     3     4    1
    13     3     5   ar
    14     5     6   ar
    15     6     7   ar
    16     7     8    1
    17     8     9    1
    18     9    10   am
    19    10    11    2
    20    10    16    1
    21    16    17   ar
    22    17    18   ar
    23    18    19   ar
    24    19    20    1
    25    19    21   ar
    26     9    12    1
    27    12    13    1
    28     7     1   ar
    29    21    16   ar
    30    13     6    1
    31    31    32    1
    32    22    23    1
    33     4    14    1
    34     4    15    1
@<TRIPOS>MOLECULE
*****
 32 34 0 0 0
SMALL
GASTEIGER

@<TRIPOS>ATOM
      1 C         139.7611  139.5242  166.8315 C.ar    1  UNL1        0.1300
      2 N         138.8418  139.3878  168.0089 N.ar    1  UNL1       -0.1995
      3 C         139.0860  140.1959  169.2487 C.ar    1  UNL1        0.2145
      4 N         138.1666  140.0595  170.4261 N.pl3   1  UNL1       -0.3274
      5 N         140.2496  141.1404  169.3113 N.ar    1  UNL1       -0.2185
      6 C         141.1690  141.2769  168.1339 C.ar    1  UNL1        0.0639
      7 C         140.9248  140.4688  166.8941 C.ar    1  UNL1        0.0429
      8 C         141.8441  140.6052  165.7167 C.3     1  UNL1        0.1244
      9 N         143.0077  141.5497  165.7793 N.am    1  UNL1       -0.2702
     10 C         143.9271  141.6861  164.6019 C.2     1  UNL1        0.2675
     11 O         145.0907  142.6306  164.6645 O.2     1  UNL1       -0.2682
     12 C         143.2519  142.3578  167.0192 C.3     1  UNL1        0.1004
     13 C         142.3326  142.2214  168.1965 C.3     1  UNL1        0.0672
     14 H         137.4029  139.4396  170.3850 H       1  UNL1        0.1452
     15 H         138.3269  140.5899  171.2399 H       1  UNL1        0.1452
     16 C         143.6829  140.8780  163.3620 C.ar    1  UNL1        0.1413
     17 C         142.9754  141.3506  162.1267 C.ar    1  UNL1        0.0603
     18 S         142.9585  140.2201  161.1410 S.2     1  UNL1       -0.0701
     19 C         143.6556  139.0488  161.7671 C.ar    1  UNL1        0.0888
     20 C         143.8678  137.7065  161.1320 C.3     1  UNL1        0.0594
     21 N         144.1033  139.4554  163.1398 N.ar    1  UNL1       -0.2381
     22 N         139.5169  138.7161  165.5916 N.pl3   1  UNL1       -0.3197
     23 H         139.8804  137.8041  165.5190 H       1  UNL1        0.1481
     24 C         138.7189  139.2976  164.4625 C.3     1  UNL1        0.0728
     25 C         138.0273  140.6174  164.6347 C.3     1  UNL1        0.0196
     26 C         138.6593  141.8702  164.1044 C.3     1  UNL1        0.0017
     27 C         140.2201  143.7776  164.9265 C.3     1  UNL1        0.0000
     28 C         138.9276  143.0229  165.0260 C.3     1  UNL1        0.0001
     29 C         138.6126  138.5593  163.1611 C.3     1  UNL1        0.0512
     30 C         139.8191  137.8815  162.5825 C.3     1  UNL1        0.1389
     31 O         140.9468  137.4639  163.4792 O.3     1  UNL1       -0.3819
     32 H         141.3685  138.2516  163.8566 H       1  UNL1        0.2104
@<TRIPOS>BOND
     1    27    28    1
     2    28    26    1
     3    26    25    1
     4    24    25    1
     5    24    29    1
     6    29    30    1
     7    30    31    1
     8    24    22    1
     9    22     1    1
    10     1     2   ar
    11     2     3   ar
    12     3     4    1
    13     3     5   ar
    14     5     6   ar
    15     6     7   ar
    16     7     8    1
    17     8     9    1
    18     9    10   am
    19    10    11    2
    20    10    16    1
    21    16    17   ar
    22    17    18   ar
    23    18    19   ar
    24    19    20    1
    25    19    21   ar
    26     9    12    1
    27    12    13    1
    28     7     1   ar
    29    21    16   ar
    30    13     6    1
    31    31    32    1
    32    22    23    1
    33     4    14    1
    34     4    15    1
