@<TRIPOS>MOLECULE
*****
 42 46 0 0 0
SMALL
GASTEIGER

@<TRIPOS>ATOM
      1 C         138.7747  141.4598  159.6105 C.3     1  UNL1        0.0546
      2 C         138.3772  140.0690  159.2136 C.3     1  UNL1        0.0180
      3 C         139.5487  139.4297  158.5289 C.3     1  UNL1        0.0310
      4 C         140.0271  138.1750  157.8605 C.3     1  UNL1        0.0942
      5 N         141.4444  138.3952  157.4212 N.am    1  UNL1       -0.2756
      6 C         142.3118  137.3994  156.7098 C.2     1  UNL1        0.2488
      7 O         143.7168  137.7638  156.3315 O.2     1  UNL1       -0.2699
      8 C         141.8419  139.7860  157.8182 C.3     1  UNL1        0.1023
      9 C         140.6703  140.4254  158.5028 C.3     1  UNL1        0.0902
     10 C         140.1919  141.6801  159.1712 C.3     1  UNL1        0.0261
     11 C         141.7918  141.4211  158.4767 C.2     1  UNL1        0.2267
     12 O         141.9401  142.3534  157.3110 O.2     1  UNL1       -0.2748
     13 N         142.7652  141.4845  159.6163 N.am    1  UNL1       -0.2750
     14 C         143.8867  142.4802  159.5901 C.3     1  UNL1        0.1000
     15 C         144.8600  142.5436  160.7297 C.3     1  UNL1        0.0670
     16 C         144.7118  141.6113  161.8954 C.ar    1  UNL1        0.0583
     17 N         145.6851  141.6747  163.0350 N.ar    1  UNL1       -0.2484
     18 C         145.5368  140.7424  164.2007 C.ar    1  UNL1        0.1023
     19 C         144.4152  139.7467  164.2268 C.ar    1  UNL1        0.0902
     20 C         143.4420  139.6833  163.0872 C.ar    1  UNL1        0.0040
     21 C         143.5902  140.6156  161.9215 C.ar    1  UNL1        0.0113
     22 C         142.6169  140.5522  160.7820 C.3     1  UNL1        0.1213
     23 C         144.2670  138.8144  165.3925 C.3     1  UNL1        0.4200
     24 F         144.1187  137.8821  166.5582 F       1  UNL1       -0.1658
     25 F         142.7896  139.0735  165.4118 F       1  UNL1       -0.1658
     26 F         145.7443  138.5554  165.3732 F       1  UNL1       -0.1658
     27 N         137.9072  142.4557  160.3219 N.3     1  UNL1       -0.2975
     28 H         138.0393  143.3507  159.8509 H       1  UNL1        0.1232
     29 C         138.7789  143.9596  162.2528 C.3     1  UNL1        0.1591
     30 C         138.9714  144.2094  163.7192 C.3     1  UNL1        0.1729
     31 O         138.4847  143.2050  164.7213 O.3     1  UNL1       -0.3511
     32 C         137.8054  141.9507  164.2570 C.3     1  UNL1        0.1437
     33 C         137.6129  141.7010  162.7905 C.3     1  UNL1        0.0503
     34 C         138.0997  142.7054  161.7884 C.3     1  UNL1        0.0865
     35 C         139.7643  146.3018  161.7110 C.3     1  UNL1        0.1742
     36 O         139.2656  144.9640  161.2507 O.3     1  UNL1       -0.3496
     37 C         141.7742  136.0393  156.3768 C.2     1  UNL1        0.0534
     38 C         142.7133  134.9362  155.9878 C.2     1  UNL1       -0.0221
     39 C         142.1757  133.5761  155.6548 C.3     1  UNL1        0.0188
     40 C         142.9443  132.9913  156.8025 C.3     1  UNL1        0.0044
     41 C         141.4072  134.1608  154.5071 C.3     1  UNL1        0.0044
     42 C         141.6381  132.2159  155.3217 C.3     1  UNL1        0.0044
@<TRIPOS>BOND
     1    35    36    1
     2    36    29    1
     3    29    30    1
     4    30    31    1
     5    31    32    1
     6    32    33    1
     7    33    34    1
     8    34    27    1
     9     1    27    1
    10     1     2    1
    11     3     2    1
    12     3     4    1
    13     4     5    1
    14     5     6   am
    15     6     7    2
    16     6    37    1
    17    37    38    2
    18    38    39    1
    19    39    40    1
    20    39    41    1
    21    39    42    1
    22     5     8    1
    23     8     9    1
    24     9    11    1
    25    11    12    2
    26    11    13   am
    27    13    14    1
    28    14    15    1
    29    15    16    1
    30    16    17   ar
    31    17    18   ar
    32    18    19   ar
    33    19    23    1
    34    23    24    1
    35    23    25    1
    36    23    26    1
    37    19    20   ar
    38    20    21   ar
    39    21    22    1
    40     9    10    1
    41    34    29    1
    42    10     1    1
    43     9     3    1
    44    22    13    1
    45    21    16   ar
    46    27    28    1
@<TRIPOS>MOLECULE
*****
 42 46 0 0 0
SMALL
GASTEIGER

@<TRIPOS>ATOM
      1 C         141.2950  143.9273  160.0324 C.3     1  UNL1        0.0546
      2 C         139.9705  144.3552  159.4734 C.3     1  UNL1        0.0180
      3 C         139.4173  143.2167  158.6686 C.3     1  UNL1        0.0310
      4 C         138.2569  142.7775  157.8257 C.3     1  UNL1        0.0942
      5 N         138.5224  141.3745  157.3663 N.am    1  UNL1       -0.2756
      6 C         137.6214  140.5450  156.5000 C.2     1  UNL1        0.2488
      7 O         138.0220  139.1503  156.1202 O.2     1  UNL1       -0.2699
      8 C         139.8469  140.9465  157.9253 C.3     1  UNL1        0.1023
      9 C         140.4001  142.0850  158.7301 C.3     1  UNL1        0.0902
     10 C         141.5605  142.5242  159.5730 C.3     1  UNL1        0.0261
     11 C         141.3827  140.9535  158.7916 C.2     1  UNL1        0.2267
     12 O         142.3800  140.7653  157.6871 O.2     1  UNL1       -0.2748
     13 N         141.3682  140.0100  159.9577 N.am    1  UNL1       -0.2750
     14 C         142.3509  138.8784  160.0193 C.3     1  UNL1        0.1000
     15 C         142.3363  137.9351  161.1854 C.3     1  UNL1        0.0670
     16 C         141.3390  138.1233  162.2899 C.ar    1  UNL1        0.0583
     17 N         141.3244  137.1798  163.4560 N.ar    1  UNL1       -0.2484
     18 C         140.3271  137.3680  164.5606 C.ar    1  UNL1        0.1023
     19 C         139.3444  138.4996  164.4990 C.ar    1  UNL1        0.0902
     20 C         139.3590  139.4430  163.3329 C.ar    1  UNL1        0.0040
     21 C         140.3563  139.2548  162.2284 C.ar    1  UNL1        0.0113
     22 C         140.3709  140.1982  161.0623 C.3     1  UNL1        0.1213
     23 C         138.3471  138.6878  165.6035 C.3     1  UNL1        0.4200
     24 F         137.3498  138.8760  166.7081 F       1  UNL1       -0.1658
     25 F         138.4003  137.2188  165.9019 F       1  UNL1       -0.1658
     26 F         138.2939  140.1569  165.3052 F       1  UNL1       -0.1658
     27 N         142.1960  144.7567  160.8987 N.3     1  UNL1       -0.2975
     28 H         143.0408  144.9379  160.3565 H       1  UNL1        0.1232
     29 C         141.6853  144.2199  163.3888 C.3     1  UNL1        0.1591
     30 C         142.1305  143.6990  164.7232 C.3     1  UNL1        0.1729
     31 O         143.5316  143.1941  164.9017 O.3     1  UNL1       -0.3511
     32 C         144.4876  143.2101  163.7459 C.3     1  UNL1        0.1437
     33 C         144.0424  143.7309  162.4115 C.3     1  UNL1        0.0503
     34 C         142.6412  144.2359  162.2330 C.3     1  UNL1        0.0865
     35 C         139.3269  144.7049  164.3650 C.3     1  UNL1        0.1742
     36 O         140.2842  144.7248  163.2103 O.3     1  UNL1       -0.3496
     37 C         136.3200  141.1103  156.0136 C.2     1  UNL1        0.0534
     38 C         135.0854  140.2583  156.0140 C.2     1  UNL1       -0.0221
     39 C         133.7839  140.8236  155.5276 C.3     1  UNL1        0.0188
     40 C         134.4964  141.4774  154.3809 C.3     1  UNL1        0.0044
     41 C         133.0714  140.1699  156.6742 C.3     1  UNL1        0.0044
     42 C         132.4824  141.3889  155.0412 C.3     1  UNL1        0.0044
@<TRIPOS>BOND
     1    35    36    1
     2    36    29    1
     3    29    30    1
     4    30    31    1
     5    31    32    1
     6    32    33    1
     7    33    34    1
     8    34    27    1
     9     1    27    1
    10     1     2    1
    11     3     2    1
    12     3     4    1
    13     4     5    1
    14     5     6   am
    15     6     7    2
    16     6    37    1
    17    37    38    2
    18    38    39    1
    19    39    40    1
    20    39    41    1
    21    39    42    1
    22     5     8    1
    23     8     9    1
    24     9    11    1
    25    11    12    2
    26    11    13   am
    27    13    14    1
    28    14    15    1
    29    15    16    1
    30    16    17   ar
    31    17    18   ar
    32    18    19   ar
    33    19    23    1
    34    23    24    1
    35    23    25    1
    36    23    26    1
    37    19    20   ar
    38    20    21   ar
    39    21    22    1
    40     9    10    1
    41    34    29    1
    42    10     1    1
    43     9     3    1
    44    22    13    1
    45    21    16   ar
    46    27    28    1
@<TRIPOS>MOLECULE
*****
 42 46 0 0 0
SMALL
GASTEIGER

@<TRIPOS>ATOM
      1 C         139.4740  140.1892  158.7752 C.3     1  UNL1        0.0546
      2 C         139.3885  138.7953  158.2277 C.3     1  UNL1        0.0180
      3 C         140.6980  138.4744  157.5704 C.3     1  UNL1        0.0310
      4 C         141.4546  137.4146  156.8257 C.3     1  UNL1        0.0942
      5 N         142.8170  137.9551  156.5068 N.am    1  UNL1       -0.2756
      6 C         143.9032  137.2292  155.7697 C.2     1  UNL1        0.2488
      7 O         145.2212  137.9016  155.5235 O.2     1  UNL1       -0.2699
      8 C         142.9025  139.3490  157.0543 C.3     1  UNL1        0.1023
      9 C         141.5929  139.6699  157.7116 C.3     1  UNL1        0.0902
     10 C         140.8364  140.7297  158.4563 C.3     1  UNL1        0.0261
     11 C         142.4877  140.8655  157.8529 C.2     1  UNL1        0.2267
     12 O         142.6586  141.8143  156.7038 O.2     1  UNL1       -0.2748
     13 N         143.2117  141.1122  159.1433 N.am    1  UNL1       -0.2750
     14 C         144.1065  142.3077  159.2846 C.3     1  UNL1        0.1000
     15 C         144.8304  142.5543  160.5750 C.3     1  UNL1        0.0670
     16 C         144.6595  141.6055  161.7241 C.ar    1  UNL1        0.0583
     17 N         145.3834  141.8522  163.0145 N.ar    1  UNL1       -0.2484
     18 C         145.2125  140.9033  164.1636 C.ar    1  UNL1        0.1023
     19 C         144.3176  139.7077  164.0223 C.ar    1  UNL1        0.0902
     20 C         143.5937  139.4611  162.7319 C.ar    1  UNL1        0.0040
     21 C         143.7647  140.4099  161.5828 C.ar    1  UNL1        0.0113
     22 C         143.0408  140.1633  160.2924 C.3     1  UNL1        0.1213
     23 C         144.1467  138.7588  165.1714 C.3     1  UNL1        0.4200
     24 F         143.9758  137.8099  166.3205 F       1  UNL1       -0.1658
     25 F         142.6585  138.8066  164.9895 F       1  UNL1       -0.1658
     26 F         145.6349  138.7110  165.3532 F       1  UNL1       -0.1658
     27 N         138.3878  140.9151  159.5123 N.3     1  UNL1       -0.2975
     28 H         138.5031  141.9071  159.3045 H       1  UNL1        0.1232
     29 C         138.2371  142.0287  161.8548 C.3     1  UNL1        0.1591
     30 C         138.1328  141.9080  163.3463 C.3     1  UNL1        0.1729
     31 O         138.0749  140.5529  163.9868 O.3     1  UNL1       -0.3511
     32 C         138.1213  139.3185  163.1358 C.3     1  UNL1        0.1437
     33 C         138.2256  139.4392  161.6443 C.3     1  UNL1        0.0503
     34 C         138.2835  140.7944  161.0038 C.3     1  UNL1        0.0865
     35 C         139.6194  144.0519  160.9909 C.3     1  UNL1        0.1742
     36 O         138.2950  143.3838  161.2142 O.3     1  UNL1       -0.3496
     37 C         143.6713  135.8309  155.2788 C.2     1  UNL1        0.0534
     38 C         143.7997  134.6733  156.2240 C.2     1  UNL1       -0.0221
     39 C         143.5678  133.2750  155.7332 C.3     1  UNL1        0.0188
     40 C         142.7080  133.8066  154.6250 C.3     1  UNL1        0.0044
     41 C         144.4276  132.7434  156.8413 C.3     1  UNL1        0.0044
     42 C         143.3360  131.8766  155.2423 C.3     1  UNL1        0.0044
@<TRIPOS>BOND
     1    35    36    1
     2    36    29    1
     3    29    30    1
     4    30    31    1
     5    31    32    1
     6    32    33    1
     7    33    34    1
     8    34    27    1
     9     1    27    1
    10     1     2    1
    11     3     2    1
    12     3     4    1
    13     4     5    1
    14     5     6   am
    15     6     7    2
    16     6    37    1
    17    37    38    2
    18    38    39    1
    19    39    40    1
    20    39    41    1
    21    39    42    1
    22     5     8    1
    23     8     9    1
    24     9    11    1
    25    11    12    2
    26    11    13   am
    27    13    14    1
    28    14    15    1
    29    15    16    1
    30    16    17   ar
    31    17    18   ar
    32    18    19   ar
    33    19    23    1
    34    23    24    1
    35    23    25    1
    36    23    26    1
    37    19    20   ar
    38    20    21   ar
    39    21    22    1
    40     9    10    1
    41    34    29    1
    42    10     1    1
    43     9     3    1
    44    22    13    1
    45    21    16   ar
    46    27    28    1
@<TRIPOS>MOLECULE
*****
 42 46 0 0 0
SMALL
GASTEIGER

@<TRIPOS>ATOM
      1 C         138.7904  141.7762  159.8325 C.3     1  UNL1        0.0546
      2 C         138.3142  140.7875  158.8100 C.3     1  UNL1        0.0180
      3 C         139.4592  139.8779  158.4762 C.3     1  UNL1        0.0310
      4 C         139.8726  138.7047  157.6380 C.3     1  UNL1        0.0942
      5 N         141.3121  138.4062  157.9363 N.am    1  UNL1       -0.2756
      6 C         142.1314  137.3111  157.3201 C.2     1  UNL1        0.2488
      7 O         143.5664  137.1330  157.7189 O.2     1  UNL1       -0.2699
      8 C         141.7883  139.3949  158.9588 C.3     1  UNL1        0.1023
      9 C         140.6432  140.3045  159.2926 C.3     1  UNL1        0.0902
     10 C         140.2298  141.4777  160.1308 C.3     1  UNL1        0.0261
     11 C         141.8271  140.7310  160.1088 C.2     1  UNL1        0.2267
     12 O         143.0276  141.3265  159.4348 O.2     1  UNL1       -0.2748
     13 N         141.8106  140.5622  161.5993 N.am    1  UNL1       -0.2750
     14 C         142.9945  140.9888  162.4156 C.3     1  UNL1        0.1000
     15 C         142.9779  140.8199  163.9059 C.3     1  UNL1        0.0670
     16 C         141.7775  140.2245  164.5799 C.ar    1  UNL1        0.0583
     17 N         141.7610  140.0556  166.0704 N.ar    1  UNL1       -0.2484
     18 C         140.5605  139.4602  166.7444 C.ar    1  UNL1        0.1023
     19 C         139.3765  139.0336  165.9281 C.ar    1  UNL1        0.0902
     20 C         139.3931  139.2025  164.4377 C.ar    1  UNL1        0.0040
     21 C         140.5936  139.7979  163.7637 C.ar    1  UNL1        0.0113
     22 C         140.6101  139.9668  162.2733 C.3     1  UNL1        0.1213
     23 C         138.1761  138.4382  166.6021 C.3     1  UNL1        0.4200
     24 F         136.9756  137.8428  167.2762 F       1  UNL1       -0.1658
     25 F         138.2358  139.5071  167.6527 F       1  UNL1       -0.1658
     26 F         138.1164  137.3692  165.5515 F       1  UNL1       -0.1658
     27 N         137.9710  142.8713  160.4487 N.3     1  UNL1       -0.2975
     28 H         138.2039  143.7298  159.9495 H       1  UNL1        0.1232
     29 C         138.7367  144.4554  162.3604 C.3     1  UNL1        0.1591
     30 C         138.8670  144.7566  163.8240 C.3     1  UNL1        0.1729
     31 O         138.3620  143.7751  164.8396 O.3     1  UNL1       -0.3511
     32 C         137.7266  142.4922  164.3916 C.3     1  UNL1        0.1437
     33 C         137.5963  142.1910  162.9280 C.3     1  UNL1        0.0503
     34 C         138.1013  143.1726  161.9123 C.3     1  UNL1        0.0865
     35 C         140.6397  145.3154  160.8148 C.3     1  UNL1        0.1742
     36 O         139.2416  145.4369  161.3447 O.3     1  UNL1       -0.3496
     37 C         141.5158  136.3942  156.3051 C.2     1  UNL1        0.0534
     38 C         142.3298  135.2878  155.7024 C.2     1  UNL1       -0.0221
     39 C         141.7142  134.3709  154.6874 C.3     1  UNL1        0.0188
     40 C         141.5719  135.5209  153.7349 C.3     1  UNL1        0.0044
     41 C         141.8565  133.2210  155.6399 C.3     1  UNL1        0.0044
     42 C         141.0985  133.4539  153.6724 C.3     1  UNL1        0.0044
@<TRIPOS>BOND
     1    35    36    1
     2    36    29    1
     3    29    30    1
     4    30    31    1
     5    31    32    1
     6    32    33    1
     7    33    34    1
     8    34    27    1
     9     1    27    1
    10     1     2    1
    11     3     2    1
    12     3     4    1
    13     4     5    1
    14     5     6   am
    15     6     7    2
    16     6    37    1
    17    37    38    2
    18    38    39    1
    19    39    40    1
    20    39    41    1
    21    39    42    1
    22     5     8    1
    23     8     9    1
    24     9    11    1
    25    11    12    2
    26    11    13   am
    27    13    14    1
    28    14    15    1
    29    15    16    1
    30    16    17   ar
    31    17    18   ar
    32    18    19   ar
    33    19    23    1
    34    23    24    1
    35    23    25    1
    36    23    26    1
    37    19    20   ar
    38    20    21   ar
    39    21    22    1
    40     9    10    1
    41    34    29    1
    42    10     1    1
    43     9     3    1
    44    22    13    1
    45    21    16   ar
    46    27    28    1
@<TRIPOS>MOLECULE
*****
 42 46 0 0 0
SMALL
GASTEIGER

@<TRIPOS>ATOM
      1 C         140.5166  143.9380  160.0603 C.3     1  UNL1        0.0546
      2 C         141.8839  144.3877  159.6379 C.3     1  UNL1        0.0180
      3 C         142.5157  143.2762  158.8535 C.3     1  UNL1        0.0310
      4 C         143.7511  142.8672  158.1077 C.3     1  UNL1        0.0942
      5 N         143.5379  141.4777  157.5843 N.am    1  UNL1       -0.2756
      6 C         144.5197  140.6783  156.7797 C.2     1  UNL1        0.2488
      7 O         144.1646  139.2942  156.3234 O.2     1  UNL1       -0.2699
      8 C         142.1707  141.0280  158.0066 C.3     1  UNL1        0.1023
      9 C         141.5389  142.1395  158.7911 C.3     1  UNL1        0.0902
     10 C         140.3034  142.5486  159.5369 C.3     1  UNL1        0.0261
     11 C         140.5621  141.0029  158.7286 C.2     1  UNL1        0.2267
     12 O         139.7300  140.7957  157.4979 O.2     1  UNL1       -0.2748
     13 N         140.4174  140.0733  159.8970 N.am    1  UNL1       -0.2750
     14 C         139.4406  138.9367  159.8346 C.3     1  UNL1        0.1000
     15 C         139.2959  138.0072  161.0029 C.3     1  UNL1        0.0670
     16 C         140.1280  138.2143  162.2336 C.ar    1  UNL1        0.0583
     17 N         139.9832  137.2847  163.4020 N.ar    1  UNL1       -0.2484
     18 C         140.8153  137.4918  164.6328 C.ar    1  UNL1        0.1023
     19 C         141.7921  138.6285  164.6952 C.ar    1  UNL1        0.0902
     20 C         141.9368  139.5580  163.5268 C.ar    1  UNL1        0.0040
     21 C         141.1047  139.3509  162.2961 C.ar    1  UNL1        0.0113
     22 C         141.2494  140.2804  161.1277 C.3     1  UNL1        0.1213
     23 C         142.6242  138.8356  165.9259 C.3     1  UNL1        0.4200
     24 F         143.4563  139.0428  167.1567 F       1  UNL1       -0.1658
     25 F         141.3937  139.2192  166.6933 F       1  UNL1       -0.1658
     26 F         143.8547  138.4521  165.1586 F       1  UNL1       -0.1658
     27 N         139.5349  144.7375  160.8648 N.3     1  UNL1       -0.2975
     28 H         139.9038  145.6868  160.9208 H       1  UNL1        0.1232
     29 C         140.0700  144.7521  163.4071 C.3     1  UNL1        0.1591
     30 C         139.7327  144.3353  164.8080 C.3     1  UNL1        0.1729
     31 O         138.5231  143.4871  165.0676 O.3     1  UNL1       -0.3511
     32 C         137.6507  143.0557  163.9261 C.3     1  UNL1        0.1437
     33 C         137.9879  143.4725  162.5252 C.3     1  UNL1        0.0503
     34 C         139.1976  144.3207  162.2657 C.3     1  UNL1        0.0865
     35 C         142.6407  145.1051  163.5380 C.3     1  UNL1        0.1742
     36 O         141.2796  145.6003  163.1476 O.3     1  UNL1       -0.3496
     37 C         145.8564  141.2629  156.4316 C.2     1  UNL1        0.0534
     38 C         146.3319  141.2528  155.0090 C.2     1  UNL1       -0.0221
     39 C         147.6686  141.8375  154.6608 C.3     1  UNL1        0.0188
     40 C         147.4373  141.5061  153.2163 C.3     1  UNL1        0.0044
     41 C         147.8999  142.1689  156.1053 C.3     1  UNL1        0.0044
     42 C         149.0054  142.4222  154.3127 C.3     1  UNL1        0.0044
@<TRIPOS>BOND
     1    35    36    1
     2    36    29    1
     3    29    30    1
     4    30    31    1
     5    31    32    1
     6    32    33    1
     7    33    34    1
     8    34    27    1
     9     1    27    1
    10     1     2    1
    11     3     2    1
    12     3     4    1
    13     4     5    1
    14     5     6   am
    15     6     7    2
    16     6    37    1
    17    37    38    2
    18    38    39    1
    19    39    40    1
    20    39    41    1
    21    39    42    1
    22     5     8    1
    23     8     9    1
    24     9    11    1
    25    11    12    2
    26    11    13   am
    27    13    14    1
    28    14    15    1
    29    15    16    1
    30    16    17   ar
    31    17    18   ar
    32    18    19   ar
    33    19    23    1
    34    23    24    1
    35    23    25    1
    36    23    26    1
    37    19    20   ar
    38    20    21   ar
    39    21    22    1
    40     9    10    1
    41    34    29    1
    42    10     1    1
    43     9     3    1
    44    22    13    1
    45    21    16   ar
    46    27    28    1
@<TRIPOS>MOLECULE
*****
 42 46 0 0 0
SMALL
GASTEIGER

@<TRIPOS>ATOM
      1 C         142.7239  143.6384  163.0441 C.3     1  UNL1        0.0546
      2 C         141.9743  144.7947  162.4518 C.3     1  UNL1        0.0180
      3 C         141.7168  144.4885  161.0061 C.3     1  UNL1        0.0310
      4 C         141.0945  145.0139  159.7465 C.3     1  UNL1        0.0942
      5 N         141.3004  143.9931  158.6669 N.am    1  UNL1       -0.2756
      6 C         140.8378  144.1084  157.2446 C.2     1  UNL1        0.2488
      7 O         141.1179  143.0007  156.2727 O.2     1  UNL1       -0.2699
      8 C         142.0500  142.8368  159.2593 C.3     1  UNL1        0.1023
      9 C         142.3074  143.1429  160.7049 C.3     1  UNL1        0.0902
     10 C         142.9298  142.6175  161.9645 C.3     1  UNL1        0.0261
     11 C         142.8980  141.7974  160.4038 C.2     1  UNL1        0.2267
     12 O         143.9582  141.6621  159.3514 O.2     1  UNL1       -0.2748
     13 N         142.4283  140.5870  161.1552 N.am    1  UNL1       -0.2750
     14 C         143.0188  139.2414  160.8541 C.3     1  UNL1        0.1000
     15 C         142.5491  138.0311  161.6054 C.3     1  UNL1        0.0670
     16 C         141.4889  138.1664  162.6578 C.ar    1  UNL1        0.0583
     17 N         141.0192  136.9560  163.4091 N.ar    1  UNL1       -0.2484
     18 C         139.9589  137.0912  164.4615 C.ar    1  UNL1        0.1023
     19 C         139.3684  138.4369  164.7626 C.ar    1  UNL1        0.0902
     20 C         139.8381  139.6472  164.0113 C.ar    1  UNL1        0.0040
     21 C         140.8983  139.5119  162.9589 C.ar    1  UNL1        0.0113
     22 C         141.3680  140.7222  162.2076 C.3     1  UNL1        0.1213
     23 C         138.3081  138.5721  165.8150 C.3     1  UNL1        0.4200
     24 F         137.2478  138.7074  166.8674 F       1  UNL1       -0.1658
     25 F         138.3158  140.0608  165.6315 F       1  UNL1       -0.1658
     26 F         138.3004  137.0834  165.9986 F       1  UNL1       -0.1658
     27 N         143.1865  143.5231  164.4664 N.3     1  UNL1       -0.2975
     28 H         144.1983  143.3974  164.4377 H       1  UNL1        0.1232
     29 C         143.3438  141.1166  165.4329 C.3     1  UNL1        0.1591
     30 C         142.7976  140.0321  166.3136 C.3     1  UNL1        0.1729
     31 O         141.5479  140.2697  167.1085 O.3     1  UNL1       -0.3511
     32 C         140.8444  141.5917  167.0227 C.3     1  UNL1        0.1437
     33 C         141.3906  142.6762  166.1420 C.3     1  UNL1        0.0503
     34 C         142.6403  142.4386  165.3471 C.3     1  UNL1        0.0865
     35 C         144.8808  139.5159  164.0818 C.3     1  UNL1        0.1742
     36 O         144.5934  140.8791  164.6380 O.3     1  UNL1       -0.3496
     37 C         140.0951  145.3313  156.7943 C.2     1  UNL1        0.0534
     38 C         140.5981  146.1266  155.6262 C.2     1  UNL1       -0.0221
     39 C         139.8554  147.3495  155.1759 C.3     1  UNL1        0.0188
     40 C         140.5861  147.3112  153.8665 C.3     1  UNL1        0.0044
     41 C         139.1246  147.3878  156.4852 C.3     1  UNL1        0.0044
     42 C         139.1126  148.5725  154.7256 C.3     1  UNL1        0.0044
@<TRIPOS>BOND
     1    35    36    1
     2    36    29    1
     3    29    30    1
     4    30    31    1
     5    31    32    1
     6    32    33    1
     7    33    34    1
     8    34    27    1
     9     1    27    1
    10     1     2    1
    11     3     2    1
    12     3     4    1
    13     4     5    1
    14     5     6   am
    15     6     7    2
    16     6    37    1
    17    37    38    2
    18    38    39    1
    19    39    40    1
    20    39    41    1
    21    39    42    1
    22     5     8    1
    23     8     9    1
    24     9    11    1
    25    11    12    2
    26    11    13   am
    27    13    14    1
    28    14    15    1
    29    15    16    1
    30    16    17   ar
    31    17    18   ar
    32    18    19   ar
    33    19    23    1
    34    23    24    1
    35    23    25    1
    36    23    26    1
    37    19    20   ar
    38    20    21   ar
    39    21    22    1
    40     9    10    1
    41    34    29    1
    42    10     1    1
    43     9     3    1
    44    22    13    1
    45    21    16   ar
    46    27    28    1
@<TRIPOS>MOLECULE
*****
 42 46 0 0 0
SMALL
GASTEIGER

@<TRIPOS>ATOM
      1 C         144.2398  140.2299  161.8887 C.3     1  UNL1        0.0546
      2 C         143.8803  138.7907  161.6664 C.3     1  UNL1        0.0180
      3 C         143.3855  138.6488  160.2575 C.3     1  UNL1        0.0310
      4 C         142.8575  137.6717  159.2494 C.3     1  UNL1        0.0942
      5 N         142.5850  138.4193  157.9778 N.am    1  UNL1       -0.2756
      6 C         142.0473  137.8309  156.7070 C.2     1  UNL1        0.2488
      7 O         141.8250  138.7072  155.5101 O.2     1  UNL1       -0.2699
      8 C         142.9446  139.8585  158.2001 C.3     1  UNL1        0.1023
      9 C         143.4393  140.0004  159.6090 C.3     1  UNL1        0.0902
     10 C         143.9673  140.9775  160.6172 C.3     1  UNL1        0.0261
     11 C         143.4931  141.3519  158.9606 C.2     1  UNL1        0.2267
     12 O         144.4231  141.5947  157.8090 O.2     1  UNL1       -0.2748
     13 N         142.6169  142.4606  159.4637 N.am    1  UNL1       -0.2750
     14 C         142.6707  143.8121  158.8152 C.3     1  UNL1        0.1000
     15 C         141.7945  144.9207  159.3183 C.3     1  UNL1        0.0670
     16 C         140.8644  144.6778  160.4699 C.ar    1  UNL1        0.0583
     17 N         139.9882  145.7865  160.9730 N.ar    1  UNL1       -0.2484
     18 C         139.0582  145.5436  162.1245 C.ar    1  UNL1        0.1023
     19 C         139.0044  144.1920  162.7730 C.ar    1  UNL1        0.0902
     20 C         139.8806  143.0834  162.2699 C.ar    1  UNL1        0.0040
     21 C         140.8106  143.3263  161.1183 C.ar    1  UNL1        0.0113
     22 C         141.6868  142.2177  160.6152 C.3     1  UNL1        0.1213
     23 C         138.0744  143.9492  163.9245 C.3     1  UNL1        0.4200
     24 F         137.1443  143.7063  165.0761 F       1  UNL1       -0.1658
     25 F         138.8991  144.8618  164.7831 F       1  UNL1       -0.1658
     26 F         137.2497  143.0366  163.0660 F       1  UNL1       -0.1658
     27 N         144.7775  140.8182  163.1595 N.3     1  UNL1       -0.2975
     28 H         145.4000  140.1204  163.5668 H       1  UNL1        0.1232
     29 C         143.2661  142.6326  164.2428 C.3     1  UNL1        0.1591
     30 C         142.3239  143.0592  165.3292 C.3     1  UNL1        0.1729
     31 O         141.9511  142.0981  166.4188 O.3     1  UNL1       -0.3511
     32 C         142.5204  140.7103  166.4220 C.3     1  UNL1        0.1437
     33 C         143.4626  140.2837  165.3356 C.3     1  UNL1        0.0503
     34 C         143.8354  141.2449  164.2459 C.3     1  UNL1        0.0865
     35 C         143.5913  145.0712  163.4077 C.3     1  UNL1        0.1742
     36 O         143.6389  143.5937  163.1532 O.3     1  UNL1       -0.3496
     37 C         141.7318  136.3664  156.6333 C.2     1  UNL1        0.0534
     38 C         142.7611  135.4023  156.1222 C.2     1  UNL1       -0.0221
     39 C         142.4457  133.9377  156.0485 C.3     1  UNL1        0.0188
     40 C         141.3838  134.2179  155.0268 C.3     1  UNL1        0.0044
     41 C         143.5075  133.6576  157.0702 C.3     1  UNL1        0.0044
     42 C         142.1303  132.4731  155.9747 C.3     1  UNL1        0.0044
@<TRIPOS>BOND
     1    35    36    1
     2    36    29    1
     3    29    30    1
     4    30    31    1
     5    31    32    1
     6    32    33    1
     7    33    34    1
     8    34    27    1
     9     1    27    1
    10     1     2    1
    11     3     2    1
    12     3     4    1
    13     4     5    1
    14     5     6   am
    15     6     7    2
    16     6    37    1
    17    37    38    2
    18    38    39    1
    19    39    40    1
    20    39    41    1
    21    39    42    1
    22     5     8    1
    23     8     9    1
    24     9    11    1
    25    11    12    2
    26    11    13   am
    27    13    14    1
    28    14    15    1
    29    15    16    1
    30    16    17   ar
    31    17    18   ar
    32    18    19   ar
    33    19    23    1
    34    23    24    1
    35    23    25    1
    36    23    26    1
    37    19    20   ar
    38    20    21   ar
    39    21    22    1
    40     9    10    1
    41    34    29    1
    42    10     1    1
    43     9     3    1
    44    22    13    1
    45    21    16   ar
    46    27    28    1
@<TRIPOS>MOLECULE
*****
 42 46 0 0 0
SMALL
GASTEIGER

@<TRIPOS>ATOM
      1 C         139.7101  143.0113  159.9859 C.3     1  UNL1        0.0546
      2 C         140.6650  143.9278  159.2803 C.3     1  UNL1        0.0180
      3 C         141.7516  143.0889  158.6757 C.3     1  UNL1        0.0310
      4 C         143.0133  143.1368  157.8659 C.3     1  UNL1        0.0942
      5 N         143.5097  141.7314  157.6975 N.am    1  UNL1       -0.2756
      6 C         144.7444  141.3156  156.9539 C.2     1  UNL1        0.2488
      7 O         145.1162  139.8649  156.8696 O.2     1  UNL1       -0.2699
      8 C         142.5548  140.8148  158.4031 C.3     1  UNL1        0.1023
      9 C         141.4683  141.6538  159.0077 C.3     1  UNL1        0.0902
     10 C         140.2065  141.6058  159.8175 C.3     1  UNL1        0.0261
     11 C         141.1849  140.2187  159.3398 C.2     1  UNL1        0.2267
     12 O         140.7235  139.2776  158.2667 O.2     1  UNL1       -0.2748
     13 N         141.3628  139.7247  160.7449 N.am    1  UNL1       -0.2750
     14 C         141.0794  138.2897  161.0770 C.3     1  UNL1        0.1000
     15 C         141.2573  137.7958  162.4821 C.3     1  UNL1        0.0670
     16 C         141.7186  138.7369  163.5551 C.ar    1  UNL1        0.0583
     17 N         141.8966  138.2430  164.9603 N.ar    1  UNL1       -0.2484
     18 C         142.3579  139.1841  166.0334 C.ar    1  UNL1        0.1023
     19 C         142.6413  140.6192  165.7012 C.ar    1  UNL1        0.0902
     20 C         142.4634  141.1131  164.2961 C.ar    1  UNL1        0.0040
     21 C         142.0020  140.1720  163.2231 C.ar    1  UNL1        0.0113
     22 C         141.8241  140.6659  161.8180 C.3     1  UNL1        0.1213
     23 C         143.1026  141.5603  166.7743 C.3     1  UNL1        0.4200
     24 F         143.5639  142.5015  167.8474 F       1  UNL1       -0.1658
     25 F         143.4936  142.5616  165.7281 F       1  UNL1       -0.1658
     26 F         142.7116  140.5591  167.8205 F       1  UNL1       -0.1658
     27 N         138.4755  143.4271  160.7296 N.3     1  UNL1       -0.2975
     28 H         138.2051  144.3401  160.3640 H       1  UNL1        0.1232
     29 C         137.8522  142.5043  163.0768 C.3     1  UNL1        0.1591
     30 C         137.8828  142.6279  164.5714 C.3     1  UNL1        0.1729
     31 O         138.5674  143.7981  165.2133 O.3     1  UNL1       -0.3511
     32 C         139.2214  144.8447  164.3606 C.3     1  UNL1        0.1437
     33 C         139.1908  144.7210  162.8660 C.3     1  UNL1        0.0503
     34 C         138.5061  143.5508  162.2241 C.3     1  UNL1        0.0865
     35 C         137.8854  140.0232  162.3065 C.3     1  UNL1        0.1742
     36 O         137.1676  141.3341  162.4350 O.3     1  UNL1       -0.3496
     37 C         145.6070  142.3505  156.2945 C.2     1  UNL1        0.0534
     38 C         145.4492  142.6364  154.8305 C.2     1  UNL1       -0.0221
     39 C         146.3118  143.6713  154.1712 C.3     1  UNL1        0.0188
     40 C         145.0878  144.3403  153.6197 C.3     1  UNL1        0.0044
     41 C         147.5359  143.0024  154.7227 C.3     1  UNL1        0.0044
     42 C         147.1746  144.7063  153.5119 C.3     1  UNL1        0.0044
@<TRIPOS>BOND
     1    35    36    1
     2    36    29    1
     3    29    30    1
     4    30    31    1
     5    31    32    1
     6    32    33    1
     7    33    34    1
     8    34    27    1
     9     1    27    1
    10     1     2    1
    11     3     2    1
    12     3     4    1
    13     4     5    1
    14     5     6   am
    15     6     7    2
    16     6    37    1
    17    37    38    2
    18    38    39    1
    19    39    40    1
    20    39    41    1
    21    39    42    1
    22     5     8    1
    23     8     9    1
    24     9    11    1
    25    11    12    2
    26    11    13   am
    27    13    14    1
    28    14    15    1
    29    15    16    1
    30    16    17   ar
    31    17    18   ar
    32    18    19   ar
    33    19    23    1
    34    23    24    1
    35    23    25    1
    36    23    26    1
    37    19    20   ar
    38    20    21   ar
    39    21    22    1
    40     9    10    1
    41    34    29    1
    42    10     1    1
    43     9     3    1
    44    22    13    1
    45    21    16   ar
    46    27    28    1
@<TRIPOS>MOLECULE
*****
 42 46 0 0 0
SMALL
GASTEIGER

@<TRIPOS>ATOM
      1 C         141.7408  138.1975  160.9463 C.3     1  UNL1        0.0546
      2 C         143.0461  138.1820  160.2075 C.3     1  UNL1        0.0180
      3 C         143.0279  139.3027  159.2107 C.3     1  UNL1        0.0310
      4 C         143.8233  139.9858  158.1380 C.3     1  UNL1        0.0942
      5 N         142.9984  141.1161  157.5978 N.am    1  UNL1       -0.2756
      6 C         143.4070  142.0645  156.5098 C.2     1  UNL1        0.2488
      7 O         142.4711  143.1519  156.0721 O.2     1  UNL1       -0.2699
      8 C         141.6931  141.1317  158.3367 C.3     1  UNL1        0.1023
      9 C         141.7113  140.0110  159.3335 C.3     1  UNL1        0.0902
     10 C         140.9158  139.3279  160.4062 C.3     1  UNL1        0.0261
     11 C         140.3947  140.7191  159.4563 C.2     1  UNL1        0.2267
     12 O         139.4547  140.7626  158.2882 O.2     1  UNL1       -0.2748
     13 N         140.0181  141.3838  160.7472 N.am    1  UNL1       -0.2750
     14 C         138.7016  142.0920  160.8700 C.3     1  UNL1        0.1000
     15 C         138.3251  142.7566  162.1609 C.3     1  UNL1        0.0670
     16 C         139.2651  142.7131  163.3290 C.ar    1  UNL1        0.0583
     17 N         138.8885  143.3778  164.6199 N.ar    1  UNL1       -0.2484
     18 C         139.8286  143.3343  165.7880 C.ar    1  UNL1        0.1023
     19 C         141.1452  142.6261  165.6651 C.ar    1  UNL1        0.0902
     20 C         141.5217  141.9615  164.3742 C.ar    1  UNL1        0.0040
     21 C         140.5817  142.0050  163.2062 C.ar    1  UNL1        0.0113
     22 C         140.9582  141.3403  161.9153 C.3     1  UNL1        0.1213
     23 C         142.0852  142.5826  166.8332 C.3     1  UNL1        0.4200
     24 F         143.0253  142.5391  168.0013 F       1  UNL1       -0.1658
     25 F         143.2195  142.2543  165.9082 F       1  UNL1       -0.1658
     26 F         140.9510  142.9110  167.7582 F       1  UNL1       -0.1658
     27 N         141.3321  137.2492  162.0344 N.3     1  UNL1       -0.2975
     28 H         140.5884  136.6653  161.6520 H       1  UNL1        0.1232
     29 C         139.3609  137.9378  163.5803 C.3     1  UNL1        0.1591
     30 C         138.8628  138.4702  164.8912 C.3     1  UNL1        0.1729
     31 O         139.8379  138.8464  165.9671 O.3     1  UNL1       -0.3511
     32 C         141.3112  138.6901  165.7322 C.3     1  UNL1        0.1437
     33 C         141.8093  138.1577  164.4212 C.3     1  UNL1        0.0503
     34 C         140.8341  137.7816  163.3453 C.3     1  UNL1        0.0865
     35 C         137.6678  138.6311  161.7356 C.3     1  UNL1        0.1742
     36 O         138.3858  137.5617  162.5044 O.3     1  UNL1       -0.3496
     37 C         144.7515  141.9253  155.8595 C.2     1  UNL1        0.0534
     38 C         145.9970  142.2212  156.6412 C.2     1  UNL1       -0.0221
     39 C         147.3415  142.0820  155.9909 C.3     1  UNL1        0.0188
     40 C         146.7174  141.3115  154.8655 C.3     1  UNL1        0.0044
     41 C         147.9656  142.8525  157.1164 C.3     1  UNL1        0.0044
     42 C         148.6861  141.9429  155.3406 C.3     1  UNL1        0.0044
@<TRIPOS>BOND
     1    35    36    1
     2    36    29    1
     3    29    30    1
     4    30    31    1
     5    31    32    1
     6    32    33    1
     7    33    34    1
     8    34    27    1
     9     1    27    1
    10     1     2    1
    11     3     2    1
    12     3     4    1
    13     4     5    1
    14     5     6   am
    15     6     7    2
    16     6    37    1
    17    37    38    2
    18    38    39    1
    19    39    40    1
    20    39    41    1
    21    39    42    1
    22     5     8    1
    23     8     9    1
    24     9    11    1
    25    11    12    2
    26    11    13   am
    27    13    14    1
    28    14    15    1
    29    15    16    1
    30    16    17   ar
    31    17    18   ar
    32    18    19   ar
    33    19    23    1
    34    23    24    1
    35    23    25    1
    36    23    26    1
    37    19    20   ar
    38    20    21   ar
    39    21    22    1
    40     9    10    1
    41    34    29    1
    42    10     1    1
    43     9     3    1
    44    22    13    1
    45    21    16   ar
    46    27    28    1
