@<TRIPOS>MOLECULE
*****
 35 37 0 0 0
SMALL
GASTEIGER

@<TRIPOS>ATOM
      1 C         140.5959  140.0768  170.3268 C.3     1  UNL1        0.1459
      2 O         140.6095  140.4439  171.7811 O.3     1  UNL1       -0.3813
      3 H         141.4955  140.2907  172.1449 H       1  UNL1        0.2105
      4 C         139.3347  140.2232  169.5281 C.3     1  UNL1        0.1204
      5 C         138.4274  139.2066  167.3160 C.2     1  UNL1        0.2460
      6 O         137.4336  138.3975  168.0955 O.2     1  UNL1       -0.2701
      7 N         139.3779  140.1195  168.0323 N.am    1  UNL1       -0.2985
      8 H         140.0302  140.6506  167.5207 H       1  UNL1        0.1498
      9 C         138.1165  140.1733  163.4795 C.ar    1  UNL1        0.1516
     10 C         138.0733  140.2769  164.9752 C.ar    1  UNL1        0.0427
     11 C         138.4706  139.1029  165.8202 C.ar    1  UNL1        0.0565
     12 C         138.9113  137.8254  165.1694 C.ar    1  UNL1        0.0060
     13 C         138.9545  137.7217  163.6736 C.ar    1  UNL1        0.0173
     14 C         138.5571  138.8957  162.8287 C.ar    1  UNL1        0.0760
     15 N         138.6004  138.7920  161.3328 N.pl3   1  UNL1       -0.3546
     16 H         138.8896  137.9535  160.9057 H       1  UNL1        0.1424
     17 H         138.3396  139.5625  160.7782 H       1  UNL1        0.1424
     18 C         137.6129  142.7116  163.2486 C.3     1  UNL1        0.2525
     19 O         137.7191  141.3472  162.6345 O.3     1  UNL1       -0.4702
     20 C         141.8436  139.5633  169.6712 C.3     1  UNL1        0.1034
     21 N         142.3401  140.1957  168.4049 N.3     1  UNL1       -0.2704
     22 C         142.6835  141.6557  168.3803 C.3     1  UNL1        0.0759
     23 C         143.1800  142.2881  167.1140 C.3     1  UNL1        0.0609
     24 C         143.3331  141.4606  165.8723 C.3     1  UNL1        0.1687
     25 C         142.9897  140.0006  165.8969 C.3     1  UNL1        0.0609
     26 C         142.4932  139.3682  167.1632 C.3     1  UNL1        0.0759
     27 O         143.8297  142.0930  164.6060 O.3     1  UNL1       -0.4790
     28 C         142.9316  143.0006  163.8187 C.ar    1  UNL1        0.1393
     29 C         142.8934  144.4684  164.1255 C.ar    1  UNL1        0.0378
     30 C         141.9954  145.3761  163.3382 C.ar    1  UNL1        0.0154
     31 C         141.1355  144.8159  162.2442 C.ar    1  UNL1        0.0684
     32 CL        140.2375  145.7235  161.4570 Cl      1  UNL1       -0.0814
     33 C         141.1737  143.3481  161.9375 C.ar    1  UNL1        0.0712
     34 CL        140.3138  142.7879  160.8435 Cl      1  UNL1       -0.0813
     35 C         142.0717  142.4405  162.7247 C.ar    1  UNL1        0.0491
@<TRIPOS>BOND
     1    18    19    1
     2    19     9    1
     3     9    10   ar
     4    10    11   ar
     5    11     5    1
     6     5     6    2
     7     5     7   am
     8     7     4    1
     9     4     1    1
    10     1     2    1
    11     1    20    1
    12    20    21    1
    13    21    22    1
    14    22    23    1
    15    23    24    1
    16    24    27    1
    17    27    28    1
    18    28    29   ar
    19    29    30   ar
    20    30    31   ar
    21    31    32    1
    22    31    33   ar
    23    33    34    1
    24    33    35   ar
    25    24    25    1
    26    25    26    1
    27    11    12   ar
    28    12    13   ar
    29    13    14   ar
    30    14    15    1
    31    14     9   ar
    32    26    21    1
    33    35    28   ar
    34     7     8    1
    35     2     3    1
    36    15    16    1
    37    15    17    1
@<TRIPOS>MOLECULE
*****
 35 37 0 0 0
SMALL
GASTEIGER

@<TRIPOS>ATOM
      1 C         140.2349  139.8974  170.4888 C.3     1  UNL1        0.1459
      2 O         139.7386  139.1373  171.6829 O.3     1  UNL1       -0.3813
      3 H         140.4934  138.8535  172.2221 H       1  UNL1        0.2105
      4 C         139.2590  140.4479  169.4915 C.3     1  UNL1        0.1204
      5 C         139.2886  140.4778  166.8938 C.2     1  UNL1        0.2460
      6 O         139.7374  141.9089  166.9154 O.2     1  UNL1       -0.2701
      7 N         139.0494  139.7473  168.1819 N.am    1  UNL1       -0.2985
      8 H         138.7548  138.8080  168.1677 H       1  UNL1        0.1498
      9 C         138.3224  139.8312  163.0993 C.ar    1  UNL1        0.1516
     10 C         138.5321  140.5318  164.4089 C.ar    1  UNL1        0.0427
     11 C         139.0790  139.7771  165.5841 C.ar    1  UNL1        0.0565
     12 C         139.4163  138.3217  165.4498 C.ar    1  UNL1        0.0060
     13 C         139.2066  137.6211  164.1401 C.ar    1  UNL1        0.0173
     14 C         138.6597  138.3759  162.9649 C.ar    1  UNL1        0.0760
     15 N         138.4501  137.6752  161.6552 N.pl3   1  UNL1       -0.3546
     16 H         138.6715  136.7200  161.5670 H       1  UNL1        0.1424
     17 H         138.0912  138.1706  160.8838 H       1  UNL1        0.1424
     18 C         137.8492  142.0839  161.8944 C.3     1  UNL1        0.2525
     19 O         137.7755  140.5860  161.9240 O.3     1  UNL1       -0.4702
     20 C         141.7071  140.1071  170.2920 C.3     1  UNL1        0.1034
     21 N         142.2429  140.4308  168.9289 N.3     1  UNL1       -0.2704
     22 C         142.4242  139.3396  167.9157 C.3     1  UNL1        0.0759
     23 C         142.9599  139.6633  166.5525 C.3     1  UNL1        0.0609
     24 C         143.3145  141.0783  166.2026 C.3     1  UNL1        0.1687
     25 C         143.1332  142.1694  167.2158 C.3     1  UNL1        0.0609
     26 C         142.5974  141.8456  168.5789 C.3     1  UNL1        0.0759
     27 O         143.8503  141.4020  164.8395 O.3     1  UNL1       -0.4790
     28 C         143.2808  140.7231  163.6291 C.ar    1  UNL1        0.1393
     29 C         142.0231  141.2439  162.9992 C.ar    1  UNL1        0.0378
     30 C         141.4537  140.5650  161.7888 C.ar    1  UNL1        0.0154
     31 C         142.1420  139.3652  161.2085 C.ar    1  UNL1        0.0684
     32 CL        141.5726  138.6863  159.9982 Cl      1  UNL1       -0.0814
     33 C         143.3998  138.8444  161.8385 C.ar    1  UNL1        0.0712
     34 CL        144.0881  137.6446  161.2581 Cl      1  UNL1       -0.0813
     35 C         143.9691  139.5233  163.0488 C.ar    1  UNL1        0.0491
@<TRIPOS>BOND
     1    18    19    1
     2    19     9    1
     3     9    10   ar
     4    10    11   ar
     5    11     5    1
     6     5     6    2
     7     5     7   am
     8     7     4    1
     9     4     1    1
    10     1     2    1
    11     1    20    1
    12    20    21    1
    13    21    22    1
    14    22    23    1
    15    23    24    1
    16    24    27    1
    17    27    28    1
    18    28    29   ar
    19    29    30   ar
    20    30    31   ar
    21    31    32    1
    22    31    33   ar
    23    33    34    1
    24    33    35   ar
    25    24    25    1
    26    25    26    1
    27    11    12   ar
    28    12    13   ar
    29    13    14   ar
    30    14    15    1
    31    14     9   ar
    32    26    21    1
    33    35    28   ar
    34     7     8    1
    35     2     3    1
    36    15    16    1
    37    15    17    1
@<TRIPOS>MOLECULE
*****
 35 37 0 0 0
SMALL
GASTEIGER

@<TRIPOS>ATOM
      1 C         141.8085  139.9886  170.1980 C.3     1  UNL1        0.1459
      2 O         142.3756  140.6116  171.4391 O.3     1  UNL1       -0.3813
      3 H         141.6817  141.1129  171.8952 H       1  UNL1        0.2105
      4 C         142.6842  139.1557  169.3095 C.3     1  UNL1        0.1204
      5 C         143.3857  138.3806  166.9311 C.2     1  UNL1        0.2460
      6 O         144.3511  137.4037  167.5341 O.2     1  UNL1       -0.2701
      7 N         142.5523  139.2566  167.8188 N.am    1  UNL1       -0.2985
      8 H         141.9186  139.8977  167.4229 H       1  UNL1        0.1498
      9 C         141.9530  137.9482  163.2554 C.ar    1  UNL1        0.1516
     10 C         142.0850  137.8473  164.7462 C.ar    1  UNL1        0.0427
     11 C         143.2538  138.4815  165.4403 C.ar    1  UNL1        0.0565
     12 C         144.2905  139.2166  164.6436 C.ar    1  UNL1        0.0060
     13 C         144.1585  139.3175  163.1529 C.ar    1  UNL1        0.0173
     14 C         142.9898  138.6833  162.4588 C.ar    1  UNL1        0.0760
     15 N         142.8578  138.7842  160.9679 N.pl3   1  UNL1       -0.3546
     16 H         143.5383  139.2667  160.4451 H       1  UNL1        0.1424
     17 H         142.0907  138.3679  160.5124 H       1  UNL1        0.1424
     18 C         139.3857  137.6811  162.9601 C.3     1  UNL1        0.2525
     19 O         140.7843  137.3139  162.5613 O.3     1  UNL1       -0.4702
     20 C         140.3657  140.1985  169.8454 C.3     1  UNL1        0.1034
     21 N         139.9675  140.4209  168.4164 N.3     1  UNL1       -0.2704
     22 C         139.1490  139.3903  167.6968 C.3     1  UNL1        0.0759
     23 C         138.7508  139.6128  166.2678 C.3     1  UNL1        0.0609
     24 C         139.1713  140.8659  165.5585 C.3     1  UNL1        0.1687
     25 C         139.9898  141.8964  166.2781 C.3     1  UNL1        0.0609
     26 C         140.3879  141.6740  167.7071 C.3     1  UNL1        0.0759
     27 O         138.7731  141.0884  164.1295 O.3     1  UNL1       -0.4790
     28 C         138.9911  142.4276  163.4900 C.ar    1  UNL1        0.1393
     29 C         137.9329  143.4862  163.5868 C.ar    1  UNL1        0.0378
     30 C         138.1509  144.8255  162.9473 C.ar    1  UNL1        0.0154
     31 C         139.4272  145.1061  162.2110 C.ar    1  UNL1        0.0684
     32 CL        139.6453  146.4453  161.5715 Cl      1  UNL1       -0.0814
     33 C         140.4855  144.0474  162.1141 C.ar    1  UNL1        0.0712
     34 CL        141.7619  144.3281  161.3778 Cl      1  UNL1       -0.0813
     35 C         140.2675  142.7082  162.7536 C.ar    1  UNL1        0.0491
@<TRIPOS>BOND
     1    18    19    1
     2    19     9    1
     3     9    10   ar
     4    10    11   ar
     5    11     5    1
     6     5     6    2
     7     5     7   am
     8     7     4    1
     9     4     1    1
    10     1     2    1
    11     1    20    1
    12    20    21    1
    13    21    22    1
    14    22    23    1
    15    23    24    1
    16    24    27    1
    17    27    28    1
    18    28    29   ar
    19    29    30   ar
    20    30    31   ar
    21    31    32    1
    22    31    33   ar
    23    33    34    1
    24    33    35   ar
    25    24    25    1
    26    25    26    1
    27    11    12   ar
    28    12    13   ar
    29    13    14   ar
    30    14    15    1
    31    14     9   ar
    32    26    21    1
    33    35    28   ar
    34     7     8    1
    35     2     3    1
    36    15    16    1
    37    15    17    1
@<TRIPOS>MOLECULE
*****
 35 37 0 0 0
SMALL
GASTEIGER

@<TRIPOS>ATOM
      1 C         142.9920  141.1423  169.2294 C.3     1  UNL1        0.1459
      2 O         143.2024  141.4055  170.6910 O.3     1  UNL1       -0.3813
      3 H         143.0373  140.5921  171.1931 H       1  UNL1        0.2105
      4 C         143.1857  142.2466  168.2329 C.3     1  UNL1        0.1204
      5 C         142.1542  142.7462  165.9013 C.2     1  UNL1        0.2460
      6 O         143.4312  142.3141  165.2438 O.2     1  UNL1       -0.2701
      7 N         142.0314  142.7125  167.3959 N.am    1  UNL1       -0.2985
      8 H         141.1933  142.9962  167.8275 H       1  UNL1        0.1498
      9 C         140.0969  144.3350  162.9024 C.ar    1  UNL1        0.1516
     10 C         141.2511  143.8691  163.7394 C.ar    1  UNL1        0.0427
     11 C         140.9999  143.2122  165.0643 C.ar    1  UNL1        0.0565
     12 C         139.5944  143.0212  165.5522 C.ar    1  UNL1        0.0060
     13 C         138.4402  143.4871  164.7152 C.ar    1  UNL1        0.0173
     14 C         138.6914  144.1440  163.3903 C.ar    1  UNL1        0.0760
     15 N         137.5371  144.6100  162.5533 N.pl3   1  UNL1       -0.3546
     16 H         136.6146  144.4846  162.8735 H       1  UNL1        0.1424
     17 H         137.7020  145.0411  161.6837 H       1  UNL1        0.1424
     18 C         141.4468  144.4902  160.6880 C.3     1  UNL1        0.2525
     19 O         140.3482  144.9919  161.5775 O.3     1  UNL1       -0.4702
     20 C         142.5879  139.7746  168.7642 C.3     1  UNL1        0.1034
     21 N         141.4823  139.6195  167.7624 N.3     1  UNL1       -0.2704
     22 C         141.7999  139.2288  166.3494 C.3     1  UNL1        0.0759
     23 C         140.6942  139.0737  165.3476 C.3     1  UNL1        0.0609
     24 C         139.2710  139.3092  165.7589 C.3     1  UNL1        0.1687
     25 C         138.9535  139.6999  167.1718 C.3     1  UNL1        0.0609
     26 C         140.0591  139.8551  168.1736 C.3     1  UNL1        0.0759
     27 O         138.1654  139.1541  164.7571 O.3     1  UNL1       -0.4790
     28 C         138.4664  139.2330  163.2897 C.ar    1  UNL1        0.1393
     29 C         138.7652  137.9825  162.5171 C.ar    1  UNL1        0.0378
     30 C         139.0662  138.0614  161.0497 C.ar    1  UNL1        0.0154
     31 C         139.0683  139.3908  160.3549 C.ar    1  UNL1        0.0684
     32 CL        139.3693  139.4697  158.8876 Cl      1  UNL1       -0.0814
     33 C         138.7695  140.6413  161.1276 C.ar    1  UNL1        0.0712
     34 CL        138.7716  141.9707  160.4328 Cl      1  UNL1       -0.0813
     35 C         138.4685  140.5624  162.5949 C.ar    1  UNL1        0.0491
@<TRIPOS>BOND
     1    18    19    1
     2    19     9    1
     3     9    10   ar
     4    10    11   ar
     5    11     5    1
     6     5     6    2
     7     5     7   am
     8     7     4    1
     9     4     1    1
    10     1     2    1
    11     1    20    1
    12    20    21    1
    13    21    22    1
    14    22    23    1
    15    23    24    1
    16    24    27    1
    17    27    28    1
    18    28    29   ar
    19    29    30   ar
    20    30    31   ar
    21    31    32    1
    22    31    33   ar
    23    33    34    1
    24    33    35   ar
    25    24    25    1
    26    25    26    1
    27    11    12   ar
    28    12    13   ar
    29    13    14   ar
    30    14    15    1
    31    14     9   ar
    32    26    21    1
    33    35    28   ar
    34     7     8    1
    35     2     3    1
    36    15    16    1
    37    15    17    1
@<TRIPOS>MOLECULE
*****
 35 37 0 0 0
SMALL
GASTEIGER

@<TRIPOS>ATOM
      1 C         139.7923  145.5543  161.8892 C.3     1  UNL1        0.1459
      2 O         140.3571  146.8429  162.4094 O.3     1  UNL1       -0.3813
      3 H         139.8761  147.1073  163.2092 H       1  UNL1        0.2105
      4 C         140.3661  144.9290  160.6524 C.3     1  UNL1        0.1204
      5 C         142.2151  143.1896  161.2053 C.2     1  UNL1        0.2460
      6 O         143.1058  144.2923  161.6959 O.2     1  UNL1       -0.2701
      7 N         140.8452  143.5080  160.6836 N.am    1  UNL1       -0.2985
      8 H         140.2606  142.7842  160.3616 H       1  UNL1        0.1498
      9 C         142.7692  139.4443  162.3951 C.ar    1  UNL1        0.1516
     10 C         142.2901  140.8653  162.3639 C.ar    1  UNL1        0.0427
     11 C         142.6942  141.7685  161.2364 C.ar    1  UNL1        0.0565
     12 C         143.5773  141.2505  160.1402 C.ar    1  UNL1        0.0060
     13 C         144.0563  139.8294  160.1713 C.ar    1  UNL1        0.0173
     14 C         143.6523  138.9263  161.2988 C.ar    1  UNL1        0.0760
     15 N         144.1314  137.5052  161.3299 N.pl3   1  UNL1       -0.3546
     16 H         144.7110  137.1652  160.6104 H       1  UNL1        0.1424
     17 H         143.8662  136.9124  162.0699 H       1  UNL1        0.1424
     18 C         141.2172  137.5916  163.3483 C.3     1  UNL1        0.2525
     19 O         142.3652  138.5411  163.5225 O.3     1  UNL1       -0.4702
     20 C         138.6536  144.8910  162.6059 C.3     1  UNL1        0.1034
     21 N         138.8807  143.6080  163.3490 N.3     1  UNL1       -0.2704
     22 C         137.9496  142.4494  163.1471 C.3     1  UNL1        0.0759
     23 C         138.1768  141.1663  163.8902 C.3     1  UNL1        0.0609
     24 C         139.3350  141.0419  164.8353 C.3     1  UNL1        0.1687
     25 C         140.2660  142.2005  165.0372 C.3     1  UNL1        0.0609
     26 C         140.0389  143.4836  164.2941 C.3     1  UNL1        0.0759
     27 O         139.5621  139.7589  165.5784 O.3     1  UNL1       -0.4790
     28 C         140.4009  139.7508  166.8220 C.ar    1  UNL1        0.1393
     29 C         141.8756  139.4925  166.7303 C.ar    1  UNL1        0.0378
     30 C         142.7144  139.4844  167.9738 C.ar    1  UNL1        0.0154
     31 C         142.0785  139.7347  169.3091 C.ar    1  UNL1        0.0684
     32 CL        142.9172  139.7266  170.5526 Cl      1  UNL1       -0.0814
     33 C         140.6037  139.9930  169.4008 C.ar    1  UNL1        0.0712
     34 CL        139.9677  140.2433  170.7360 Cl      1  UNL1       -0.0813
     35 C         139.7650  140.0011  168.1573 C.ar    1  UNL1        0.0491
@<TRIPOS>BOND
     1    18    19    1
     2    19     9    1
     3     9    10   ar
     4    10    11   ar
     5    11     5    1
     6     5     6    2
     7     5     7   am
     8     7     4    1
     9     4     1    1
    10     1     2    1
    11     1    20    1
    12    20    21    1
    13    21    22    1
    14    22    23    1
    15    23    24    1
    16    24    27    1
    17    27    28    1
    18    28    29   ar
    19    29    30   ar
    20    30    31   ar
    21    31    32    1
    22    31    33   ar
    23    33    34    1
    24    33    35   ar
    25    24    25    1
    26    25    26    1
    27    11    12   ar
    28    12    13   ar
    29    13    14   ar
    30    14    15    1
    31    14     9   ar
    32    26    21    1
    33    35    28   ar
    34     7     8    1
    35     2     3    1
    36    15    16    1
    37    15    17    1
@<TRIPOS>MOLECULE
*****
 35 37 0 0 0
SMALL
GASTEIGER

@<TRIPOS>ATOM
      1 C         138.5710  139.6057  159.5592 C.3     1  UNL1        0.1459
      2 O         138.1839  139.9215  158.1449 O.3     1  UNL1       -0.3813
      3 H         137.2240  140.0509  158.0936 H       1  UNL1        0.2105
      4 C         140.0096  139.3607  159.9062 C.3     1  UNL1        0.1204
      5 C         141.6624  139.7784  161.8667 C.2     1  UNL1        0.2460
      6 O         141.8664  138.2993  162.0099 O.2     1  UNL1       -0.2701
      7 N         140.7340  140.3091  160.8148 N.am    1  UNL1       -0.2985
      8 H         140.6001  141.2799  160.7208 H       1  UNL1        0.1498
      9 C         142.3934  142.8621  164.2556 C.ar    1  UNL1        0.1516
     10 C         141.6691  141.9136  163.3469 C.ar    1  UNL1        0.0427
     11 C         142.3868  140.7269  162.7754 C.ar    1  UNL1        0.0565
     12 C         143.8289  140.4888  163.1124 C.ar    1  UNL1        0.0060
     13 C         144.5533  141.4373  164.0210 C.ar    1  UNL1        0.0173
     14 C         143.8355  142.6239  164.5926 C.ar    1  UNL1        0.0760
     15 N         144.5599  143.5725  165.5013 N.pl3   1  UNL1       -0.3546
     16 H         145.5064  143.4161  165.7225 H       1  UNL1        0.1424
     17 H         144.0889  144.3513  165.8764 H       1  UNL1        0.1424
     18 C         140.4629  144.5966  164.1351 C.3     1  UNL1        0.2525
     19 O         141.6757  144.0487  164.8271 O.3     1  UNL1       -0.4702
     20 C         137.5195  139.5349  160.6267 C.3     1  UNL1        0.1034
     21 N         137.9199  139.4029  162.0662 N.3     1  UNL1       -0.2704
     22 C         138.4038  138.0841  162.5922 C.3     1  UNL1        0.0759
     23 C         138.8041  137.9521  164.0318 C.3     1  UNL1        0.0609
     24 C         138.7206  139.1390  164.9453 C.3     1  UNL1        0.1687
     25 C         138.2367  140.4577  164.4193 C.3     1  UNL1        0.0609
     26 C         137.8363  140.5897  162.9797 C.3     1  UNL1        0.0759
     27 O         139.1209  139.0070  166.3848 O.3     1  UNL1       -0.4790
     28 C         140.2157  139.8687  166.9408 C.ar    1  UNL1        0.1393
     29 C         141.6485  139.5593  166.6225 C.ar    1  UNL1        0.0378
     30 C         142.7433  140.4209  167.1785 C.ar    1  UNL1        0.0154
     31 C         142.4053  141.5919  168.0528 C.ar    1  UNL1        0.0684
     32 CL        143.5000  142.4536  168.6088 Cl      1  UNL1       -0.0814
     33 C         140.9724  141.9013  168.3711 C.ar    1  UNL1        0.0712
     34 CL        140.6343  143.0724  169.2454 Cl      1  UNL1       -0.0813
     35 C         139.8777  141.0397  167.8151 C.ar    1  UNL1        0.0491
@<TRIPOS>BOND
     1    18    19    1
     2    19     9    1
     3     9    10   ar
     4    10    11   ar
     5    11     5    1
     6     5     6    2
     7     5     7   am
     8     7     4    1
     9     4     1    1
    10     1     2    1
    11     1    20    1
    12    20    21    1
    13    21    22    1
    14    22    23    1
    15    23    24    1
    16    24    27    1
    17    27    28    1
    18    28    29   ar
    19    29    30   ar
    20    30    31   ar
    21    31    32    1
    22    31    33   ar
    23    33    34    1
    24    33    35   ar
    25    24    25    1
    26    25    26    1
    27    11    12   ar
    28    12    13   ar
    29    13    14   ar
    30    14    15    1
    31    14     9   ar
    32    26    21    1
    33    35    28   ar
    34     7     8    1
    35     2     3    1
    36    15    16    1
    37    15    17    1
@<TRIPOS>MOLECULE
*****
 35 37 0 0 0
SMALL
GASTEIGER

@<TRIPOS>ATOM
      1 C         137.9040  139.1826  160.9387 C.3     1  UNL1        0.1459
      2 O         136.5578  139.8189  160.7575 O.3     1  UNL1       -0.3813
      3 H         135.9424  139.4678  161.4200 H       1  UNL1        0.2105
      4 C         139.0391  139.5580  160.0328 C.3     1  UNL1        0.1204
      5 C         140.7523  141.0359  161.3098 C.2     1  UNL1        0.2460
      6 O         139.7157  142.1099  161.4577 O.2     1  UNL1       -0.2701
      7 N         140.4140  139.7599  160.5974 N.am    1  UNL1       -0.2985
      8 H         141.0944  139.0551  160.5003 H       1  UNL1        0.1498
      9 C         143.8195  142.6843  163.2139 C.ar    1  UNL1        0.1516
     10 C         142.4446  142.4823  162.6493 C.ar    1  UNL1        0.0427
     11 C         142.1273  141.2378  161.8744 C.ar    1  UNL1        0.0565
     12 C         143.1849  140.1951  161.6642 C.ar    1  UNL1        0.0060
     13 C         144.5598  140.3971  162.2287 C.ar    1  UNL1        0.0173
     14 C         144.8771  141.6416  163.0036 C.ar    1  UNL1        0.0760
     15 N         146.2521  141.8435  163.5682 N.pl3   1  UNL1       -0.3546
     16 H         146.9463  141.1592  163.4302 H       1  UNL1        0.1424
     17 H         146.4604  142.6604  164.0768 H       1  UNL1        0.1424
     18 C         143.2856  145.1528  163.8232 C.3     1  UNL1        0.2525
     19 O         144.1367  143.9288  163.9887 O.3     1  UNL1       -0.4702
     20 C         138.1151  138.1709  162.0259 C.3     1  UNL1        0.1034
     21 N         139.2767  138.3101  162.9647 N.3     1  UNL1       -0.2704
     22 C         139.2578  139.3662  164.0298 C.3     1  UNL1        0.0759
     23 C         140.4194  139.5054  164.9686 C.3     1  UNL1        0.0609
     24 C         141.5998  138.5886  164.8423 C.3     1  UNL1        0.1687
     25 C         141.6187  137.5326  163.7772 C.3     1  UNL1        0.0609
     26 C         140.4572  137.3933  162.8384 C.3     1  UNL1        0.0759
     27 O         142.7614  138.7278  165.7811 O.3     1  UNL1       -0.4790
     28 C         142.7584  139.8069  166.8231 C.ar    1  UNL1        0.1393
     29 C         143.0722  141.2222  166.4380 C.ar    1  UNL1        0.0378
     30 C         143.0692  142.3013  167.4801 C.ar    1  UNL1        0.0154
     31 C         142.7524  141.9649  168.9071 C.ar    1  UNL1        0.0684
     32 CL        142.7493  143.0439  169.9491 Cl      1  UNL1       -0.0814
     33 C         142.4385  140.5495  169.2922 C.ar    1  UNL1        0.0712
     34 CL        142.1217  140.2132  170.7192 Cl      1  UNL1       -0.0813
     35 C         142.4416  139.4705  168.2502 C.ar    1  UNL1        0.0491
@<TRIPOS>BOND
     1    18    19    1
     2    19     9    1
     3     9    10   ar
     4    10    11   ar
     5    11     5    1
     6     5     6    2
     7     5     7   am
     8     7     4    1
     9     4     1    1
    10     1     2    1
    11     1    20    1
    12    20    21    1
    13    21    22    1
    14    22    23    1
    15    23    24    1
    16    24    27    1
    17    27    28    1
    18    28    29   ar
    19    29    30   ar
    20    30    31   ar
    21    31    32    1
    22    31    33   ar
    23    33    34    1
    24    33    35   ar
    25    24    25    1
    26    25    26    1
    27    11    12   ar
    28    12    13   ar
    29    13    14   ar
    30    14    15    1
    31    14     9   ar
    32    26    21    1
    33    35    28   ar
    34     7     8    1
    35     2     3    1
    36    15    16    1
    37    15    17    1
@<TRIPOS>MOLECULE
*****
 35 37 0 0 0
SMALL
GASTEIGER

@<TRIPOS>ATOM
      1 C         141.1941  140.3404  169.8311 C.3     1  UNL1        0.1459
      2 O         141.0860  140.3095  171.3269 O.3     1  UNL1       -0.3813
      3 H         141.9324  140.5774  171.7178 H       1  UNL1        0.2105
      4 C         140.0128  139.9658  168.9859 C.3     1  UNL1        0.1204
      5 C         139.4289  140.2539  166.4708 C.2     1  UNL1        0.2460
      6 O         139.6651  138.7895  166.2482 O.2     1  UNL1       -0.2701
      7 N         139.6027  140.8421  167.8397 N.am    1  UNL1       -0.2985
      8 H         139.4477  141.8033  167.9858 H       1  UNL1        0.1498
      9 C         139.1412  143.4051  164.0756 C.ar    1  UNL1        0.1516
     10 C         139.5513  142.5288  165.2217 C.ar    1  UNL1        0.0427
     11 C         139.0187  141.1303  165.3245 C.ar    1  UNL1        0.0565
     12 C         138.0761  140.6081  164.2811 C.ar    1  UNL1        0.0060
     13 C         137.6661  141.4844  163.1349 C.ar    1  UNL1        0.0173
     14 C         138.1986  142.8830  163.0321 C.ar    1  UNL1        0.0760
     15 N         137.7885  143.7593  161.8858 N.pl3   1  UNL1       -0.3546
     16 H         137.1698  143.4166  161.2010 H       1  UNL1        0.1424
     17 H         138.1380  144.6772  161.8184 H       1  UNL1        0.1424
     18 C         141.1267  145.0333  163.6792 C.3     1  UNL1        0.2525
     19 O         139.6737  144.8037  163.9728 O.3     1  UNL1       -0.4702
     20 C         142.4834  140.7459  169.1805 C.3     1  UNL1        0.1034
     21 N         142.7978  140.2860  167.7878 N.3     1  UNL1       -0.2704
     22 C         142.8485  141.2781  166.6638 C.3     1  UNL1        0.0759
     23 C         143.1629  140.8181  165.2711 C.3     1  UNL1        0.0609
     24 C         143.4267  139.3661  165.0024 C.3     1  UNL1        0.1687
     25 C         143.3760  138.3741  166.1264 C.3     1  UNL1        0.0609
     26 C         143.0616  138.8340  167.5191 C.3     1  UNL1        0.0759
     27 O         143.7411  138.9061  163.6097 O.3     1  UNL1       -0.4790
     28 C         142.6441  138.7874  162.5935 C.ar    1  UNL1        0.1393
     29 C         141.2920  138.2846  163.0046 C.ar    1  UNL1        0.0378
     30 C         140.1951  138.1660  161.9884 C.ar    1  UNL1        0.0154
     31 C         140.4503  138.5501  160.5610 C.ar    1  UNL1        0.0684
     32 CL        139.3534  138.4314  159.5448 Cl      1  UNL1       -0.0814
     33 C         141.8024  139.0529  160.1499 C.ar    1  UNL1        0.0712
     34 CL        142.0576  139.4371  158.7226 Cl      1  UNL1       -0.0813
     35 C         142.8993  139.1716  161.1662 C.ar    1  UNL1        0.0491
@<TRIPOS>BOND
     1    18    19    1
     2    19     9    1
     3     9    10   ar
     4    10    11   ar
     5    11     5    1
     6     5     6    2
     7     5     7   am
     8     7     4    1
     9     4     1    1
    10     1     2    1
    11     1    20    1
    12    20    21    1
    13    21    22    1
    14    22    23    1
    15    23    24    1
    16    24    27    1
    17    27    28    1
    18    28    29   ar
    19    29    30   ar
    20    30    31   ar
    21    31    32    1
    22    31    33   ar
    23    33    34    1
    24    33    35   ar
    25    24    25    1
    26    25    26    1
    27    11    12   ar
    28    12    13   ar
    29    13    14   ar
    30    14    15    1
    31    14     9   ar
    32    26    21    1
    33    35    28   ar
    34     7     8    1
    35     2     3    1
    36    15    16    1
    37    15    17    1
@<TRIPOS>MOLECULE
*****
 35 37 0 0 0
SMALL
GASTEIGER

@<TRIPOS>ATOM
      1 C         142.4131  143.1317  170.0449 C.3     1  UNL1        0.1459
      2 O         142.9764  144.0710  171.0698 O.3     1  UNL1       -0.3813
      3 H         142.2882  144.6948  171.3494 H       1  UNL1        0.2105
      4 C         143.2813  142.0634  169.4491 C.3     1  UNL1        0.1204
      5 C         143.1575  140.5207  167.3623 C.2     1  UNL1        0.2460
      6 O         142.9250  139.3357  168.2520 O.2     1  UNL1       -0.2701
      7 N         143.3357  141.8846  167.9608 N.am    1  UNL1       -0.2985
      8 H         143.4883  142.6623  167.3769 H       1  UNL1        0.1498
      9 C         143.0192  141.3333  163.4802 C.ar    1  UNL1        0.1516
     10 C         142.9648  141.5120  164.9685 C.ar    1  UNL1        0.0427
     11 C         143.2119  140.3419  165.8739 C.ar    1  UNL1        0.0565
     12 C         143.5135  138.9931  165.2911 C.ar    1  UNL1        0.0060
     13 C         143.5679  138.8144  163.8028 C.ar    1  UNL1        0.0173
     14 C         143.3207  139.9845  162.8974 C.ar    1  UNL1        0.0760
     15 N         143.3751  139.8057  161.4090 N.pl3   1  UNL1       -0.3546
     16 H         143.5730  138.9204  161.0265 H       1  UNL1        0.1424
     17 H         143.2129  140.5736  160.8147 H       1  UNL1        0.1424
     18 C         143.3632  143.8426  162.9016 C.3     1  UNL1        0.2525
     19 O         142.7720  142.5033  162.5747 O.3     1  UNL1       -0.4702
     20 C         140.9815  143.2606  169.6158 C.3     1  UNL1        0.1034
     21 N         140.3441  142.1786  168.7954 N.3     1  UNL1       -0.2704
     22 C         139.8465  140.9288  169.4590 C.3     1  UNL1        0.0759
     23 C         139.2091  139.8468  168.6386 C.3     1  UNL1        0.0609
     24 C         139.0694  140.0147  167.1546 C.3     1  UNL1        0.1687
     25 C         139.5670  141.2645  166.4910 C.3     1  UNL1        0.0609
     26 C         140.2043  142.3465  167.3114 C.3     1  UNL1        0.0759
     27 O         138.4320  138.9327  166.3341 O.3     1  UNL1       -0.4790
     28 C         138.8134  138.7606  164.8936 C.ar    1  UNL1        0.1393
     29 C         139.9331  137.8352  164.5196 C.ar    1  UNL1        0.0378
     30 C         140.3144  137.6631  163.0791 C.ar    1  UNL1        0.0154
     31 C         139.5761  138.4164  162.0126 C.ar    1  UNL1        0.0684
     32 CL        139.9574  138.2443  160.5722 Cl      1  UNL1       -0.0814
     33 C         138.4563  139.3418  162.3867 C.ar    1  UNL1        0.0712
     34 CL        137.7180  140.0951  161.3202 Cl      1  UNL1       -0.0813
     35 C         138.0750  139.5139  163.8271 C.ar    1  UNL1        0.0491
@<TRIPOS>BOND
     1    18    19    1
     2    19     9    1
     3     9    10   ar
     4    10    11   ar
     5    11     5    1
     6     5     6    2
     7     5     7   am
     8     7     4    1
     9     4     1    1
    10     1     2    1
    11     1    20    1
    12    20    21    1
    13    21    22    1
    14    22    23    1
    15    23    24    1
    16    24    27    1
    17    27    28    1
    18    28    29   ar
    19    29    30   ar
    20    30    31   ar
    21    31    32    1
    22    31    33   ar
    23    33    34    1
    24    33    35   ar
    25    24    25    1
    26    25    26    1
    27    11    12   ar
    28    12    13   ar
    29    13    14   ar
    30    14    15    1
    31    14     9   ar
    32    26    21    1
    33    35    28   ar
    34     7     8    1
    35     2     3    1
    36    15    16    1
    37    15    17    1
