@<TRIPOS>MOLECULE
*****
 40 44 0 0 0
SMALL
GASTEIGER

@<TRIPOS>ATOM
      1 S         139.0990  141.6637  160.7638 S.O2    1  UNL1        0.0458
      2 O         137.8772  140.7938  160.7476 O.2     1  UNL1       -0.1572
      3 O         140.3209  142.5336  160.7800 O.2     1  UNL1       -0.1572
      4 C         138.2456  142.8567  161.0774 C.3     1  UNL1        0.1863
      5 C         137.7220  143.0595  162.4684 C.3     1  UNL1        0.0995
      6 N         140.8547  141.0524  167.1755 N.3     1  UNL1       -0.2646
      7 C         139.7133  140.2435  166.6343 C.3     1  UNL1        0.1037
      8 C         138.9302  140.7453  165.4575 C.3     1  UNL1        0.1470
      9 C         138.1469  141.2471  164.2807 C.3     1  UNL1        0.1035
     10 N         138.5051  142.5577  163.6452 N.3     1  UNL1       -0.2670
     11 C         139.6465  143.3666  164.1865 C.3     1  UNL1        0.1035
     12 C         140.4297  142.8648  165.3633 C.3     1  UNL1        0.1470
     13 C         141.2129  142.3630  166.5400 C.3     1  UNL1        0.1037
     14 O         139.2883  142.0559  164.8220 O.3     1  UNL1       -0.3530
     15 C         141.6379  140.5506  168.3524 C.3     1  UNL1        0.1034
     16 C         138.9735  140.4437  170.2336 C.3     1  UNL1        0.0554
     17 C         140.2537  141.1549  170.5578 C.ar    1  UNL1        0.0979
     18 N         140.5340  141.9418  171.8037 N.ar    1  UNL1       -0.0820
     19 O         141.9320  142.4773  171.7089 O.2     1  UNL1       -0.3584
     20 C         142.5157  142.0213  170.4045 C.ar    1  UNL1        0.1518
     21 C         143.8945  142.3287  169.9002 C.3     1  UNL1        0.0751
     22 C         141.4784  141.2040  169.6931 C.ar    1  UNL1        0.0435
     23 N         139.9525  140.4707  160.4503 N.3     1  UNL1       -0.1503
     24 C         139.7770  139.1985  161.2252 C.3     1  UNL1        0.1221
     25 C         140.6387  138.9244  162.4221 C.ar    1  UNL1       -0.0044
     26 C         141.5642  139.9857  162.9387 C.ar    1  UNL1       -0.0022
     27 C         142.4258  139.7116  164.1356 C.ar    1  UNL1        0.0100
     28 C         142.3619  138.3762  164.8158 C.ar    1  UNL1        0.0684
     29 C         141.4363  137.3150  164.2992 C.ar    1  UNL1        0.0100
     30 C         140.5747  137.5890  163.1023 C.ar    1  UNL1       -0.0022
     31 C         143.2235  138.1022  166.0127 C.1     1  UNL1        0.1004
     32 N         144.0851  137.8282  167.2096 N.1     1  UNL1       -0.1908
     33 C         140.9815  140.5500  159.3617 C.3     1  UNL1        0.1261
     34 C         141.5252  139.2926  158.7506 C.ar    1  UNL1        0.0452
     35 C         142.8027  138.6066  159.1344 C.ar    1  UNL1        0.0980
     36 C         143.7609  139.0575  160.1967 C.3     1  UNL1        0.0554
     37 N         142.9538  137.3905  158.2694 N.ar    1  UNL1       -0.0820
     38 O         141.7697  137.3249  157.3509 O.2     1  UNL1       -0.3584
     39 C         140.8868  138.5005  157.6483 C.ar    1  UNL1        0.1518
     40 C         139.5926  138.8266  156.9637 C.3     1  UNL1        0.0751
@<TRIPOS>BOND
     1    16    17    1
     2    17    18   ar
     3    18    19   ar
     4    19    20   ar
     5    20    21    1
     6    20    22   ar
     7    22    15    1
     8    15     6    1
     9     6     7    1
    10     7     8    1
    11     8     9    1
    12     9    10    1
    13    10     5    1
    14     5     4    1
    15     4     1    1
    16     1     2    2
    17     1     3    2
    18     1    23    1
    19    23    24    1
    20    24    25    1
    21    25    26   ar
    22    26    27   ar
    23    27    28   ar
    24    28    31    1
    25    31    32    3
    26    28    29   ar
    27    29    30   ar
    28    23    33    1
    29    33    34    1
    30    34    35   ar
    31    35    36    1
    32    35    37   ar
    33    37    38   ar
    34    38    39   ar
    35    39    40    1
    36    10    11    1
    37    11    12    1
    38    12    13    1
    39    12    14    1
    40    22    17   ar
    41    13     6    1
    42    14     8    1
    43    30    25   ar
    44    39    34   ar
@<TRIPOS>MOLECULE
*****
 40 44 0 0 0
SMALL
GASTEIGER

@<TRIPOS>ATOM
      1 S         139.1548  141.6964  160.7464 S.O2    1  UNL1        0.0458
      2 O         137.9485  140.8076  160.6766 O.2     1  UNL1       -0.1572
      3 O         140.3610  142.5852  160.8162 O.2     1  UNL1       -0.1572
      4 C         138.2676  142.8815  160.9884 C.3     1  UNL1        0.1863
      5 C         137.7964  143.1943  162.3777 C.3     1  UNL1        0.0995
      6 N         140.8084  141.0771  167.1153 N.3     1  UNL1       -0.2646
      7 C         139.6638  140.2944  166.5435 C.3     1  UNL1        0.1037
      8 C         138.9108  140.8237  165.3591 C.3     1  UNL1        0.1470
      9 C         138.1577  141.3530  164.1747 C.3     1  UNL1        0.1035
     10 N         138.5494  142.6650  163.5621 N.3     1  UNL1       -0.2670
     11 C         139.6941  143.4477  164.1340 C.3     1  UNL1        0.1035
     12 C         140.4471  142.9184  165.3184 C.3     1  UNL1        0.1470
     13 C         141.2001  142.3891  166.5028 C.3     1  UNL1        0.1037
     14 O         139.3024  142.1357  164.7466 O.3     1  UNL1       -0.3530
     15 C         141.5615  140.5478  168.2997 C.3     1  UNL1        0.1034
     16 C         143.8352  142.3035  169.8482 C.3     1  UNL1        0.0554
     17 C         142.4530  142.0103  170.3519 C.ar    1  UNL1        0.0979
     18 N         141.8734  142.4727  171.6558 N.ar    1  UNL1       -0.0820
     19 O         140.4699  141.9514  171.7499 O.2     1  UNL1       -0.3584
     20 C         140.1823  141.1669  170.5041 C.ar    1  UNL1        0.1518
     21 C         138.8951  140.4687  170.1794 C.3     1  UNL1        0.0751
     22 C         141.4080  141.2033  169.6401 C.ar    1  UNL1        0.0435
     23 N         140.0419  140.5114  160.5044 N.3     1  UNL1       -0.1503
     24 C         139.8360  139.2481  161.2866 C.3     1  UNL1        0.1221
     25 C         140.6969  138.9560  162.4797 C.ar    1  UNL1       -0.0044
     26 C         141.6356  140.0031  163.0017 C.ar    1  UNL1       -0.0022
     27 C         142.4964  139.7109  164.1948 C.ar    1  UNL1        0.0100
     28 C         142.4186  138.3717  164.8659 C.ar    1  UNL1        0.0684
     29 C         141.4799  137.3247  164.3440 C.ar    1  UNL1        0.0100
     30 C         140.6190  137.6168  163.1509 C.ar    1  UNL1       -0.0022
     31 C         143.2795  138.0796  166.0591 C.1     1  UNL1        0.1004
     32 N         144.1403  137.7875  167.2522 N.1     1  UNL1       -0.1908
     33 C         141.1350  140.5895  159.4801 C.3     1  UNL1        0.1261
     34 C         141.6330  139.3392  158.8178 C.ar    1  UNL1        0.0452
     35 C         140.9716  138.6216  157.6786 C.ar    1  UNL1        0.0980
     36 C         139.6963  139.0282  157.0019 C.3     1  UNL1        0.0554
     37 N         141.8096  137.4258  157.3351 N.ar    1  UNL1       -0.0820
     38 O         142.9888  137.4044  158.2619 O.2     1  UNL1       -0.3584
     39 C         142.8796  138.5870  159.1782 C.ar    1  UNL1        0.1518
     40 C         143.8473  138.9530  160.2643 C.3     1  UNL1        0.0751
@<TRIPOS>BOND
     1    16    17    1
     2    17    18   ar
     3    18    19   ar
     4    19    20   ar
     5    20    21    1
     6    20    22   ar
     7    22    15    1
     8    15     6    1
     9     6     7    1
    10     7     8    1
    11     8     9    1
    12     9    10    1
    13    10     5    1
    14     5     4    1
    15     4     1    1
    16     1     2    2
    17     1     3    2
    18     1    23    1
    19    23    24    1
    20    24    25    1
    21    25    26   ar
    22    26    27   ar
    23    27    28   ar
    24    28    31    1
    25    31    32    3
    26    28    29   ar
    27    29    30   ar
    28    23    33    1
    29    33    34    1
    30    34    35   ar
    31    35    36    1
    32    35    37   ar
    33    37    38   ar
    34    38    39   ar
    35    39    40    1
    36    10    11    1
    37    11    12    1
    38    12    13    1
    39    12    14    1
    40    22    17   ar
    41    13     6    1
    42    14     8    1
    43    30    25   ar
    44    39    34   ar
@<TRIPOS>MOLECULE
*****
 40 44 0 0 0
SMALL
GASTEIGER

@<TRIPOS>ATOM
      1 S         141.7283  139.7835  166.3987 S.O2    1  UNL1        0.0458
      2 O         140.3626  139.1673  166.3279 O.2     1  UNL1       -0.1572
      3 O         143.0939  140.3998  166.4694 O.2     1  UNL1       -0.1572
      4 C         142.3045  138.5865  165.7022 C.3     1  UNL1        0.1863
      5 C         141.4548  137.7856  164.7605 C.3     1  UNL1        0.0995
      6 N         141.8245  138.7279  158.8466 N.3     1  UNL1       -0.2646
      7 C         143.0670  138.7388  159.6868 C.3     1  UNL1        0.1037
      8 C         142.9746  138.5032  161.1653 C.3     1  UNL1        0.1470
      9 C         142.8822  138.2676  162.6438 C.3     1  UNL1        0.1035
     10 N         141.5473  138.0212  163.2820 N.3     1  UNL1       -0.2670
     11 C         140.3048  138.0103  162.4417 C.3     1  UNL1        0.1035
     12 C         140.3972  138.2459  160.9632 C.3     1  UNL1        0.1470
     13 C         140.4896  138.4815  159.4847 C.3     1  UNL1        0.1037
     14 O         141.6397  138.2568  161.8035 O.3     1  UNL1       -0.3530
     15 C         141.9169  138.9635  157.3680 C.3     1  UNL1        0.1034
     16 C         144.2681  140.8971  156.1921 C.3     1  UNL1        0.0554
     17 C         144.2125  139.4030  156.0709 C.ar    1  UNL1        0.0979
     18 N         145.2277  138.5354  155.3879 N.ar    1  UNL1       -0.0820
     19 O         144.7744  137.1104  155.5064 O.2     1  UNL1       -0.3584
     20 C         143.4790  137.0974  156.2625 C.ar    1  UNL1        0.1518
     21 C         142.6726  135.8810  156.6089 C.3     1  UNL1        0.0751
     22 C         143.1317  138.5143  156.6114 C.ar    1  UNL1        0.0435
     23 N         141.1520  140.9805  167.0951 N.3     1  UNL1       -0.1503
     24 C         139.8057  141.5059  166.6936 C.3     1  UNL1        0.1221
     25 C         139.6929  142.5123  165.5869 C.ar    1  UNL1       -0.0044
     26 C         138.4509  142.5682  164.7477 C.ar    1  UNL1       -0.0022
     27 C         138.3382  143.5746  163.6412 C.ar    1  UNL1        0.0100
     28 C         139.4674  144.5250  163.3738 C.ar    1  UNL1        0.0684
     29 C         140.7094  144.4691  164.2130 C.ar    1  UNL1        0.0100
     30 C         140.8221  143.4628  165.3196 C.ar    1  UNL1       -0.0022
     31 C         139.3547  145.5314  162.2672 C.1     1  UNL1        0.1004
     32 N         139.2419  146.5377  161.1606 N.1     1  UNL1       -0.1908
     33 C         141.9222  141.6522  168.1933 C.3     1  UNL1        0.1261
     34 C         141.4258  141.5848  169.6071 C.ar    1  UNL1        0.0452
     35 C         140.7267  142.6849  170.3495 C.ar    1  UNL1        0.0980
     36 C         140.4013  144.0455  169.8084 C.3     1  UNL1        0.0554
     37 N         140.4101  142.1854  171.7281 N.ar    1  UNL1       -0.0820
     38 O         140.9135  140.7767  171.8377 O.2     1  UNL1       -0.3584
     39 C         141.5412  140.4055  170.5269 C.ar    1  UNL1        0.1518
     40 C         142.1734  139.0865  170.1942 C.3     1  UNL1        0.0751
@<TRIPOS>BOND
     1    16    17    1
     2    17    18   ar
     3    18    19   ar
     4    19    20   ar
     5    20    21    1
     6    20    22   ar
     7    22    15    1
     8    15     6    1
     9     6     7    1
    10     7     8    1
    11     8     9    1
    12     9    10    1
    13    10     5    1
    14     5     4    1
    15     4     1    1
    16     1     2    2
    17     1     3    2
    18     1    23    1
    19    23    24    1
    20    24    25    1
    21    25    26   ar
    22    26    27   ar
    23    27    28   ar
    24    28    31    1
    25    31    32    3
    26    28    29   ar
    27    29    30   ar
    28    23    33    1
    29    33    34    1
    30    34    35   ar
    31    35    36    1
    32    35    37   ar
    33    37    38   ar
    34    38    39   ar
    35    39    40    1
    36    10    11    1
    37    11    12    1
    38    12    13    1
    39    12    14    1
    40    22    17   ar
    41    13     6    1
    42    14     8    1
    43    30    25   ar
    44    39    34   ar
@<TRIPOS>MOLECULE
*****
 40 44 0 0 0
SMALL
GASTEIGER

@<TRIPOS>ATOM
      1 S         139.5233  139.5909  160.8186 S.O2    1  UNL1        0.0458
      2 O         138.1302  140.1433  160.8806 O.2     1  UNL1       -0.1572
      3 O         140.9165  139.0385  160.7566 O.2     1  UNL1       -0.1572
      4 C         139.0098  138.2478  161.2455 C.3     1  UNL1        0.1863
      5 C         138.5720  138.0283  162.6634 C.3     1  UNL1        0.0995
      6 N         141.3049  140.9519  167.1337 N.3     1  UNL1       -0.2646
      7 C         139.9514  141.3962  166.6639 C.3     1  UNL1        0.1037
      8 C         139.2682  140.6653  165.5464 C.3     1  UNL1        0.1470
      9 C         138.5850  139.9344  164.4288 C.3     1  UNL1        0.1035
     10 N         139.2552  138.7592  163.7810 N.3     1  UNL1       -0.2670
     11 C         140.6087  138.3149  164.2508 C.3     1  UNL1        0.1035
     12 C         141.2919  139.0458  165.3683 C.3     1  UNL1        0.1470
     13 C         141.9751  139.7767  166.4859 C.3     1  UNL1        0.1037
     14 O         139.9385  139.4901  164.8986 O.3     1  UNL1       -0.3530
     15 C         141.9881  141.6828  168.2513 C.3     1  UNL1        0.1034
     16 C         140.4252  144.0303  169.8932 C.3     1  UNL1        0.0554
     17 C         140.7403  142.6562  170.4055 C.ar    1  UNL1        0.0979
     18 N         140.3922  142.1198  171.7624 N.ar    1  UNL1       -0.0820
     19 O         140.8955  140.7092  171.8462 O.2     1  UNL1       -0.3584
     20 C         141.5546  140.3738  170.5412 C.ar    1  UNL1        0.1518
     21 C         142.1969  139.0650  170.1886 C.3     1  UNL1        0.0751
     22 C         141.4587  141.5771  169.6508 C.ar    1  UNL1        0.0435
     23 N         140.0369  140.9340  160.3916 N.3     1  UNL1       -0.1503
     24 C         141.5142  141.1808  160.3100 C.3     1  UNL1        0.1221
     25 C         142.2357  141.8039  161.4681 C.ar    1  UNL1       -0.0044
     26 C         141.6310  141.7595  162.8401 C.ar    1  UNL1       -0.0022
     27 C         142.3524  142.3826  163.9982 C.ar    1  UNL1        0.0100
     28 C         143.6786  143.0501  163.7843 C.ar    1  UNL1        0.0684
     29 C         144.2832  143.0946  162.4123 C.ar    1  UNL1        0.0100
     30 C         143.5618  142.4714  161.2543 C.ar    1  UNL1       -0.0022
     31 C         144.4000  143.6733  164.9425 C.1     1  UNL1        0.1004
     32 N         145.1215  144.2963  166.1006 N.1     1  UNL1       -0.1908
     33 C         139.0731  142.0304  160.0463 C.3     1  UNL1        0.1261
     34 C         139.2470  143.3966  160.6407 C.ar    1  UNL1        0.0452
     35 C         138.6401  143.8840  161.9231 C.ar    1  UNL1        0.0980
     36 C         137.7528  143.0908  162.8359 C.3     1  UNL1        0.0554
     37 N         139.0764  145.3038  162.1320 N.ar    1  UNL1       -0.0820
     38 O         139.9529  145.6940  160.9790 O.2     1  UNL1       -0.3584
     39 C         140.0584  144.5152  160.0573 C.ar    1  UNL1        0.1518
     40 C         140.8382  144.4641  158.7770 C.3     1  UNL1        0.0751
@<TRIPOS>BOND
     1    16    17    1
     2    17    18   ar
     3    18    19   ar
     4    19    20   ar
     5    20    21    1
     6    20    22   ar
     7    22    15    1
     8    15     6    1
     9     6     7    1
    10     7     8    1
    11     8     9    1
    12     9    10    1
    13    10     5    1
    14     5     4    1
    15     4     1    1
    16     1     2    2
    17     1     3    2
    18     1    23    1
    19    23    24    1
    20    24    25    1
    21    25    26   ar
    22    26    27   ar
    23    27    28   ar
    24    28    31    1
    25    31    32    3
    26    28    29   ar
    27    29    30   ar
    28    23    33    1
    29    33    34    1
    30    34    35   ar
    31    35    36    1
    32    35    37   ar
    33    37    38   ar
    34    38    39   ar
    35    39    40    1
    36    10    11    1
    37    11    12    1
    38    12    13    1
    39    12    14    1
    40    22    17   ar
    41    13     6    1
    42    14     8    1
    43    30    25   ar
    44    39    34   ar
@<TRIPOS>MOLECULE
*****
 40 44 0 0 0
SMALL
GASTEIGER

@<TRIPOS>ATOM
      1 S         141.3109  143.6271  160.4892 S.O2    1  UNL1        0.0458
      2 O         140.0449  142.8227  160.5041 O.2     1  UNL1       -0.1572
      3 O         142.5768  144.4315  160.4744 O.2     1  UNL1       -0.1572
      4 C         140.5548  144.8261  160.9798 C.3     1  UNL1        0.1863
      5 C         140.8536  145.3991  162.3335 C.3     1  UNL1        0.0995
      6 N         141.5906  141.7504  167.0392 N.3     1  UNL1       -0.2646
      7 C         140.2094  142.0919  166.5641 C.3     1  UNL1        0.1037
      8 C         140.0252  143.0040  165.3877 C.3     1  UNL1        0.1470
      9 C         139.8409  143.9162  164.2112 C.3     1  UNL1        0.1035
     10 N         141.0378  144.4869  163.5099 N.3     1  UNL1       -0.2670
     11 C         142.4190  144.1454  163.9851 C.3     1  UNL1        0.1035
     12 C         142.6032  143.2332  165.1616 C.3     1  UNL1        0.1470
     13 C         142.7875  142.3211  166.3380 C.3     1  UNL1        0.1037
     14 O         141.2221  143.5747  164.6864 O.3     1  UNL1       -0.3530
     15 C         141.7749  140.8382  168.2157 C.3     1  UNL1        0.1034
     16 C         139.0489  140.5678  169.9893 C.3     1  UNL1        0.0554
     17 C         140.3204  141.2351  170.4229 C.ar    1  UNL1        0.0979
     18 N         140.5620  141.8954  171.7479 N.ar    1  UNL1       -0.0820
     19 O         141.9644  142.4277  171.7516 O.2     1  UNL1       -0.3584
     20 C         142.5894  142.0965  170.4288 C.ar    1  UNL1        0.1518
     21 C         143.9854  142.4417  170.0022 C.3     1  UNL1        0.0751
     22 C         141.5733  141.3594  169.6077 C.ar    1  UNL1        0.0435
     23 N         142.0670  142.4281  159.9987 N.3     1  UNL1       -0.1503
     24 C         143.4165  142.1074  160.5695 C.3     1  UNL1        0.1221
     25 C         143.5264  141.2778  161.8145 C.ar    1  UNL1       -0.0044
     26 C         144.8635  141.0702  162.4618 C.ar    1  UNL1       -0.0022
     27 C         144.9733  140.2406  163.7067 C.ar    1  UNL1        0.0100
     28 C         143.7461  139.6188  164.3042 C.ar    1  UNL1        0.0684
     29 C         142.4090  139.8264  163.6569 C.ar    1  UNL1        0.0100
     30 C         142.2992  140.6559  162.4121 C.ar    1  UNL1       -0.0022
     31 C         143.8560  138.7892  165.5492 C.1     1  UNL1        0.1004
     32 N         143.9658  137.9596  166.7940 N.1     1  UNL1       -0.1908
     33 C         141.4735  141.5498  158.9374 C.3     1  UNL1        0.1261
     34 C         142.0819  140.2101  158.6459 C.ar    1  UNL1        0.0452
     35 C         141.5929  138.8888  159.1610 C.ar    1  UNL1        0.0980
     36 C         140.4098  138.6753  160.0579 C.3     1  UNL1        0.0554
     37 N         142.4950  137.8185  158.6216 N.ar    1  UNL1       -0.0820
     38 O         143.5414  138.4783  157.7733 O.2     1  UNL1       -0.3584
     39 C         143.2861  139.9563  157.7883 C.ar    1  UNL1        0.1518
     40 C         144.0933  140.9977  157.0715 C.3     1  UNL1        0.0751
@<TRIPOS>BOND
     1    16    17    1
     2    17    18   ar
     3    18    19   ar
     4    19    20   ar
     5    20    21    1
     6    20    22   ar
     7    22    15    1
     8    15     6    1
     9     6     7    1
    10     7     8    1
    11     8     9    1
    12     9    10    1
    13    10     5    1
    14     5     4    1
    15     4     1    1
    16     1     2    2
    17     1     3    2
    18     1    23    1
    19    23    24    1
    20    24    25    1
    21    25    26   ar
    22    26    27   ar
    23    27    28   ar
    24    28    31    1
    25    31    32    3
    26    28    29   ar
    27    29    30   ar
    28    23    33    1
    29    33    34    1
    30    34    35   ar
    31    35    36    1
    32    35    37   ar
    33    37    38   ar
    34    38    39   ar
    35    39    40    1
    36    10    11    1
    37    11    12    1
    38    12    13    1
    39    12    14    1
    40    22    17   ar
    41    13     6    1
    42    14     8    1
    43    30    25   ar
    44    39    34   ar
@<TRIPOS>MOLECULE
*****
 40 44 0 0 0
SMALL
GASTEIGER

@<TRIPOS>ATOM
      1 S         139.4128  139.5392  160.8424 S.O2    1  UNL1        0.0458
      2 O         140.2442  138.3174  160.5852 O.2     1  UNL1       -0.1572
      3 O         138.5815  140.7609  161.0995 O.2     1  UNL1       -0.1572
      4 C         138.3311  138.6801  161.4268 C.3     1  UNL1        0.1863
      5 C         138.5373  138.0147  162.7553 C.3     1  UNL1        0.0995
      6 N         141.2992  140.9634  167.1911 N.3     1  UNL1       -0.2646
      7 C         141.9491  139.7624  166.5704 C.3     1  UNL1        0.1037
      8 C         141.2586  139.0253  165.4614 C.3     1  UNL1        0.1470
      9 C         140.5681  138.2880  164.3525 C.3     1  UNL1        0.1035
     10 N         139.2277  138.7518  163.8642 N.3     1  UNL1       -0.2670
     11 C         138.5779  139.9529  164.4850 C.3     1  UNL1        0.1035
     12 C         139.2684  140.6900  165.5939 C.3     1  UNL1        0.1470
     13 C         139.9589  141.4272  166.7028 C.3     1  UNL1        0.1037
     14 O         139.9182  139.4891  164.9732 O.3     1  UNL1       -0.3530
     15 C         141.9897  141.7006  168.3000 C.3     1  UNL1        0.1034
     16 C         140.4162  144.0834  169.8799 C.3     1  UNL1        0.0554
     17 C         140.7293  142.7214  170.4247 C.ar    1  UNL1        0.0979
     18 N         140.3740  142.2155  171.7914 N.ar    1  UNL1       -0.0820
     19 O         140.8777  140.8075  171.9098 O.2     1  UNL1       -0.3584
     20 C         141.5443  140.4433  170.6164 C.ar    1  UNL1        0.1518
     21 C         142.1893  139.1273  170.2969 C.3     1  UNL1        0.0751
     22 C         141.4525  141.6261  169.6985 C.ar    1  UNL1        0.0435
     23 N         140.4946  140.3983  160.2579 N.3     1  UNL1       -0.1503
     24 C         141.9287  140.1478  160.6193 C.3     1  UNL1        0.1221
     25 C         142.5757  140.9418  161.7152 C.ar    1  UNL1       -0.0044
     26 C         141.7338  141.5548  162.7947 C.ar    1  UNL1       -0.0022
     27 C         142.3808  142.3488  163.8906 C.ar    1  UNL1        0.0100
     28 C         143.8698  142.5297  163.9070 C.ar    1  UNL1        0.0684
     29 C         144.7117  141.9167  162.8275 C.ar    1  UNL1        0.0100
     30 C         144.0647  141.1228  161.7316 C.ar    1  UNL1       -0.0022
     31 C         144.5168  143.3238  165.0029 C.1     1  UNL1        0.1004
     32 N         145.1637  144.1178  166.0987 N.1     1  UNL1       -0.1908
     33 C         140.1424  141.5080  159.3121 C.3     1  UNL1        0.1261
     34 C         140.9716  142.7575  159.2798 C.ar    1  UNL1        0.0452
     35 C         142.1341  143.0209  158.3692 C.ar    1  UNL1        0.0980
     36 C         142.6715  142.0811  157.3310 C.3     1  UNL1        0.0554
     37 N         142.6648  144.3893  158.6791 N.ar    1  UNL1       -0.0820
     38 O         141.8303  144.9715  159.7812 O.2     1  UNL1       -0.3584
     39 C         140.7839  143.9630  160.1524 C.ar    1  UNL1        0.1518
     40 C         139.7340  144.1307  161.2106 C.3     1  UNL1        0.0751
@<TRIPOS>BOND
     1    16    17    1
     2    17    18   ar
     3    18    19   ar
     4    19    20   ar
     5    20    21    1
     6    20    22   ar
     7    22    15    1
     8    15     6    1
     9     6     7    1
    10     7     8    1
    11     8     9    1
    12     9    10    1
    13    10     5    1
    14     5     4    1
    15     4     1    1
    16     1     2    2
    17     1     3    2
    18     1    23    1
    19    23    24    1
    20    24    25    1
    21    25    26   ar
    22    26    27   ar
    23    27    28   ar
    24    28    31    1
    25    31    32    3
    26    28    29   ar
    27    29    30   ar
    28    23    33    1
    29    33    34    1
    30    34    35   ar
    31    35    36    1
    32    35    37   ar
    33    37    38   ar
    34    38    39   ar
    35    39    40    1
    36    10    11    1
    37    11    12    1
    38    12    13    1
    39    12    14    1
    40    22    17   ar
    41    13     6    1
    42    14     8    1
    43    30    25   ar
    44    39    34   ar
@<TRIPOS>MOLECULE
*****
 40 44 0 0 0
SMALL
GASTEIGER

@<TRIPOS>ATOM
      1 S         141.9970  140.1126  166.3211 S.O2    1  UNL1        0.0458
      2 O         140.7384  139.2999  166.3934 O.2     1  UNL1       -0.1572
      3 O         143.2557  140.9253  166.2488 O.2     1  UNL1       -0.1572
      4 C         142.6840  138.9853  165.6089 C.3     1  UNL1        0.1863
      5 C         143.8494  139.2670  164.7075 C.3     1  UNL1        0.0995
      6 N         143.1983  138.8886  158.7550 N.3     1  UNL1       -0.2646
      7 C         142.6522  137.8072  159.6394 C.3     1  UNL1        0.1037
      8 C         142.8149  137.9018  161.1275 C.3     1  UNL1        0.1470
      9 C         142.9777  137.9964  162.6157 C.3     1  UNL1        0.1035
     10 N         143.6866  139.1724  163.2194 N.3     1  UNL1       -0.2670
     11 C         144.2327  140.2539  162.3348 C.3     1  UNL1        0.1035
     12 C         144.0699  140.1593  160.8467 C.3     1  UNL1        0.1470
     13 C         143.9071  140.0647  159.3586 C.3     1  UNL1        0.1037
     14 O         143.5238  139.0778  161.7312 O.3     1  UNL1       -0.3530
     15 C         143.0355  138.7941  157.2668 C.3     1  UNL1        0.1034
     16 C         139.7908  139.1375  157.3279 C.3     1  UNL1        0.0554
     17 C         140.5453  137.9986  156.7087 C.ar    1  UNL1        0.0979
     18 N         139.9409  136.8175  156.0089 N.ar    1  UNL1       -0.0820
     19 O         141.0588  135.9297  155.5483 O.2     1  UNL1       -0.3584
     20 C         142.3541  136.5621  155.9634 C.ar    1  UNL1        0.1518
     21 C         143.7259  136.0123  155.7065 C.3     1  UNL1        0.0751
     22 C         142.0368  137.8407  156.6806 C.ar    1  UNL1        0.0435
     23 N         141.3101  141.2399  167.0333 N.3     1  UNL1       -0.1503
     24 C         139.9555  141.6985  166.5805 C.3     1  UNL1        0.1221
     25 C         139.8358  142.7185  165.4871 C.ar    1  UNL1       -0.0044
     26 C         141.0534  143.4533  165.0103 C.ar    1  UNL1       -0.0022
     27 C         140.9336  144.4732  163.9170 C.ar    1  UNL1        0.0100
     28 C         139.5962  144.7582  163.3005 C.ar    1  UNL1        0.0684
     29 C         138.3786  144.0234  163.7773 C.ar    1  UNL1        0.0100
     30 C         138.4984  143.0035  164.8706 C.ar    1  UNL1       -0.0022
     31 C         139.4764  145.7782  162.2071 C.1     1  UNL1        0.1004
     32 N         139.3566  146.7980  161.1137 N.1     1  UNL1       -0.1908
     33 C         141.9776  141.9087  168.1983 C.3     1  UNL1        0.1261
     34 C         141.4244  141.7334  169.5815 C.ar    1  UNL1        0.0452
     35 C         141.5025  140.4859  170.4108 C.ar    1  UNL1        0.0980
     36 C         142.1474  139.1947  170.0025 C.3     1  UNL1        0.0554
     37 N         140.8224  140.7564  171.7201 N.ar    1  UNL1       -0.0820
     38 O         140.3240  142.1711  171.7001 O.2     1  UNL1       -0.3584
     39 C         140.6961  142.7749  170.3783 C.ar    1  UNL1        0.1518
     40 C         140.3930  144.1744  169.9318 C.3     1  UNL1        0.0751
@<TRIPOS>BOND
     1    16    17    1
     2    17    18   ar
     3    18    19   ar
     4    19    20   ar
     5    20    21    1
     6    20    22   ar
     7    22    15    1
     8    15     6    1
     9     6     7    1
    10     7     8    1
    11     8     9    1
    12     9    10    1
    13    10     5    1
    14     5     4    1
    15     4     1    1
    16     1     2    2
    17     1     3    2
    18     1    23    1
    19    23    24    1
    20    24    25    1
    21    25    26   ar
    22    26    27   ar
    23    27    28   ar
    24    28    31    1
    25    31    32    3
    26    28    29   ar
    27    29    30   ar
    28    23    33    1
    29    33    34    1
    30    34    35   ar
    31    35    36    1
    32    35    37   ar
    33    37    38   ar
    34    38    39   ar
    35    39    40    1
    36    10    11    1
    37    11    12    1
    38    12    13    1
    39    12    14    1
    40    22    17   ar
    41    13     6    1
    42    14     8    1
    43    30    25   ar
    44    39    34   ar
@<TRIPOS>MOLECULE
*****
 40 44 0 0 0
SMALL
GASTEIGER

@<TRIPOS>ATOM
      1 S         140.5533  143.7907  160.5014 S.O2    1  UNL1        0.0458
      2 O         141.8978  143.1271  160.4591 O.2     1  UNL1       -0.1572
      3 O         139.2088  144.4544  160.5438 O.2     1  UNL1       -0.1572
      4 C         141.1924  145.0539  160.9973 C.3     1  UNL1        0.1863
      5 C         140.9064  145.5442  162.3858 C.3     1  UNL1        0.0995
      6 N         141.5831  141.8550  167.0689 N.3     1  UNL1       -0.2646
      7 C         142.7448  142.1381  166.1632 C.3     1  UNL1        0.1037
      8 C         142.5756  143.0604  164.9924 C.3     1  UNL1        0.1470
      9 C         142.4064  143.9827  163.8216 C.3     1  UNL1        0.1035
     10 N         141.0756  144.6219  163.5566 N.3     1  UNL1       -0.2670
     11 C         139.9139  144.3388  164.4623 C.3     1  UNL1        0.1035
     12 C         140.0831  143.4165  165.6331 C.3     1  UNL1        0.1470
     13 C         140.2522  142.4942  166.8039 C.3     1  UNL1        0.1037
     14 O         141.2447  143.6996  164.7274 O.3     1  UNL1       -0.3530
     15 C         141.7522  140.9327  168.2397 C.3     1  UNL1        0.1034
     16 C         139.0497  140.6536  170.0475 C.3     1  UNL1        0.0554
     17 C         140.3254  141.3224  170.4662 C.ar    1  UNL1        0.0979
     18 N         140.5828  141.9802  171.7894 N.ar    1  UNL1       -0.0820
     19 O         141.9842  142.5151  171.7763 O.2     1  UNL1       -0.3584
     20 C         142.5928  142.1878  170.4450 C.ar    1  UNL1        0.1518
     21 C         143.9826  142.5364  170.0013 C.3     1  UNL1        0.0751
     22 C         141.5676  141.4506  169.6353 C.ar    1  UNL1        0.0435
     23 N         139.9142  142.5276  160.0056 N.3     1  UNL1       -0.1503
     24 C         138.5716  142.1108  160.5290 C.3     1  UNL1        0.1221
     25 C         138.4646  141.4286  161.8606 C.ar    1  UNL1       -0.0044
     26 C         139.2182  140.1568  162.1146 C.ar    1  UNL1       -0.0022
     27 C         139.1111  139.4747  163.4462 C.ar    1  UNL1        0.0100
     28 C         138.2504  140.0644  164.5239 C.ar    1  UNL1        0.0684
     29 C         137.4967  141.3362  164.2699 C.ar    1  UNL1        0.0100
     30 C         137.6038  142.0183  162.9383 C.ar    1  UNL1       -0.0022
     31 C         138.1433  139.3823  165.8555 C.1     1  UNL1        0.1004
     32 N         138.0363  138.7001  167.1871 N.1     1  UNL1       -0.1908
     33 C         140.6176  141.6811  158.9864 C.3     1  UNL1        0.1261
     34 C         139.8349  140.7231  158.1380 C.ar    1  UNL1        0.0452
     35 C         139.9732  139.2295  158.1381 C.ar    1  UNL1        0.0980
     36 C         140.9183  138.4316  158.9866 C.3     1  UNL1        0.0554
     37 N         139.0002  138.6739  157.1408 N.ar    1  UNL1       -0.0820
     38 O         138.2606  139.8241  156.5243 O.2     1  UNL1       -0.3584
     39 C         138.7765  141.0906  157.1406 C.ar    1  UNL1        0.1518
     40 C         138.3150  142.4805  156.8164 C.3     1  UNL1        0.0751
@<TRIPOS>BOND
     1    16    17    1
     2    17    18   ar
     3    18    19   ar
     4    19    20   ar
     5    20    21    1
     6    20    22   ar
     7    22    15    1
     8    15     6    1
     9     6     7    1
    10     7     8    1
    11     8     9    1
    12     9    10    1
    13    10     5    1
    14     5     4    1
    15     4     1    1
    16     1     2    2
    17     1     3    2
    18     1    23    1
    19    23    24    1
    20    24    25    1
    21    25    26   ar
    22    26    27   ar
    23    27    28   ar
    24    28    31    1
    25    31    32    3
    26    28    29   ar
    27    29    30   ar
    28    23    33    1
    29    33    34    1
    30    34    35   ar
    31    35    36    1
    32    35    37   ar
    33    37    38   ar
    34    38    39   ar
    35    39    40    1
    36    10    11    1
    37    11    12    1
    38    12    13    1
    39    12    14    1
    40    22    17   ar
    41    13     6    1
    42    14     8    1
    43    30    25   ar
    44    39    34   ar
@<TRIPOS>MOLECULE
*****
 40 44 0 0 0
SMALL
GASTEIGER

@<TRIPOS>ATOM
      1 S         138.5297  140.8705  161.0072 S.O2    1  UNL1        0.0458
      2 O         137.4543  141.7666  161.5461 O.2     1  UNL1       -0.1572
      3 O         139.6051  139.9744  160.4684 O.2     1  UNL1       -0.1572
      4 C         137.7568  139.6686  161.4633 C.3     1  UNL1        0.1863
      5 C         138.3136  138.7822  162.5377 C.3     1  UNL1        0.0995
      6 N         141.3226  141.1773  167.1430 N.3     1  UNL1       -0.2646
      7 C         139.9818  141.7271  166.7561 C.3     1  UNL1        0.1037
      8 C         139.2295  141.1283  165.6048 C.3     1  UNL1        0.1470
      9 C         138.4772  140.5296  164.4534 C.3     1  UNL1        0.1035
     10 N         139.0658  139.3810  163.6890 N.3     1  UNL1       -0.2670
     11 C         140.4068  138.8311  164.0760 C.3     1  UNL1        0.1035
     12 C         141.1590  139.4299  165.2273 C.3     1  UNL1        0.1470
     13 C         141.9112  140.0287  166.3787 C.3     1  UNL1        0.1037
     14 O         139.8181  139.9797  164.8404 O.3     1  UNL1       -0.3530
     15 C         142.0749  141.7761  168.2944 C.3     1  UNL1        0.1034
     16 C         142.2865  139.1713  170.2489 C.3     1  UNL1        0.0554
     17 C         141.6219  140.4735  170.5842 C.ar    1  UNL1        0.0979
     18 N         140.9379  140.8071  171.8768 N.ar    1  UNL1       -0.0820
     19 O         140.4179  142.2106  171.7772 O.2     1  UNL1       -0.3584
     20 C         140.7805  142.7444  170.4232 C.ar    1  UNL1        0.1518
     21 C         140.4560  144.1116  169.8986 C.3     1  UNL1        0.0751
     22 C         141.5247  141.6708  169.6858 C.ar    1  UNL1        0.0435
     23 N         139.3026  142.0724  160.5512 N.3     1  UNL1       -0.1503
     24 C         139.3960  143.2827  161.4323 C.3     1  UNL1        0.1221
     25 C         140.5686  143.4519  162.3523 C.ar    1  UNL1       -0.0044
     26 C         141.3907  142.2608  162.7465 C.ar    1  UNL1       -0.0022
     27 C         142.5632  142.4300  163.6665 C.ar    1  UNL1        0.0100
     28 C         142.9137  143.7904  164.1923 C.ar    1  UNL1        0.0684
     29 C         142.0917  144.9815  163.7982 C.ar    1  UNL1        0.0100
     30 C         140.9191  144.8123  162.8782 C.ar    1  UNL1       -0.0022
     31 C         144.0863  143.9596  165.1124 C.1     1  UNL1        0.1004
     32 N         145.2589  144.1287  166.0324 N.1     1  UNL1       -0.1908
     33 C         139.9822  142.0639  159.2139 C.3     1  UNL1        0.1261
     34 C         141.2410  142.8531  159.0073 C.ar    1  UNL1        0.0452
     35 C         142.6390  142.3576  159.2315 C.ar    1  UNL1        0.0980
     36 C         143.0236  140.9861  159.7015 C.3     1  UNL1        0.0554
     37 N         143.5848  143.4745  158.9031 N.ar    1  UNL1       -0.0820
     38 O         142.7715  144.6603  158.4759 O.2     1  UNL1       -0.3584
     39 C         141.3229  144.2762  158.5404 C.ar    1  UNL1        0.1518
     40 C         140.1603  145.1600  158.1980 C.3     1  UNL1        0.0751
@<TRIPOS>BOND
     1    16    17    1
     2    17    18   ar
     3    18    19   ar
     4    19    20   ar
     5    20    21    1
     6    20    22   ar
     7    22    15    1
     8    15     6    1
     9     6     7    1
    10     7     8    1
    11     8     9    1
    12     9    10    1
    13    10     5    1
    14     5     4    1
    15     4     1    1
    16     1     2    2
    17     1     3    2
    18     1    23    1
    19    23    24    1
    20    24    25    1
    21    25    26   ar
    22    26    27   ar
    23    27    28   ar
    24    28    31    1
    25    31    32    3
    26    28    29   ar
    27    29    30   ar
    28    23    33    1
    29    33    34    1
    30    34    35   ar
    31    35    36    1
    32    35    37   ar
    33    37    38   ar
    34    38    39   ar
    35    39    40    1
    36    10    11    1
    37    11    12    1
    38    12    13    1
    39    12    14    1
    40    22    17   ar
    41    13     6    1
    42    14     8    1
    43    30    25   ar
    44    39    34   ar
