@<TRIPOS>MOLECULE
*****
 24 24 0 0 0
SMALL
GASTEIGER

@<TRIPOS>ATOM
      1 C         139.5499  140.9756  165.8589 C.ar    1  UNL1       -0.0178
      2 C         138.2867  140.3628  165.3310 C.ar    1  UNL1       -0.0040
      3 C         138.0125  140.3628  163.8562 C.ar    1  UNL1        0.0028
      4 C         139.0014  140.9756  162.9095 C.ar    1  UNL1        0.0369
      5 C         140.2646  141.5884  163.4374 C.ar    1  UNL1        0.1382
      6 C         140.5389  141.5884  164.9121 C.ar    1  UNL1        0.0327
      7 C         139.8242  140.9757  167.3336 C.3     1  UNL1        0.0435
      8 C         139.3272  139.8481  168.1889 C.3     1  UNL1        0.0737
      9 N         139.1604  140.0448  169.6666 N.3     1  UNL1       -0.2895
     10 H         138.6872  140.9395  169.7930 H       1  UNL1        0.1237
     11 C         140.3641  140.0613  170.5616 C.3     1  UNL1        0.1552
     12 C         142.9408  143.0795  170.5931 C.3     1  UNL1        0.1149
     13 N         142.2885  141.7764  170.2375 N.am    1  UNL1       -0.2749
     14 C         142.9084  140.8853  169.2022 C.3     1  UNL1        0.1149
     15 C         141.0164  141.3644  170.9172 C.2     1  UNL1        0.2419
     16 O         140.3966  142.2555  171.9525 O.2     1  UNL1       -0.2734
     17 O         141.2536  142.2013  162.4906 O.3     1  UNL1       -0.4755
     18 C         141.0162  143.5785  161.9458 C.3     1  UNL1        0.2057
     19 C         140.6941  144.7086  162.8781 C.3     1  UNL1        0.0561
     20 C         139.2772  145.1785  163.0257 C.3     1  UNL1        0.1072
     21 C         138.3563  144.4927  163.9908 C.3     1  UNL1        0.3979
     22 F         137.4354  143.8068  164.9560 F       1  UNL1       -0.1700
     23 F         137.5285  143.9915  162.8448 F       1  UNL1       -0.1700
     24 F         139.1842  144.9939  165.1369 F       1  UNL1       -0.1700
@<TRIPOS>BOND
     1    12    13    1
     2    13    14    1
     3    13    15   am
     4    15    16    2
     5    15    11    1
     6    11     9    1
     7     9     8    1
     8     8     7    1
     9     7     1    1
    10     1     2   ar
    11     2     3   ar
    12     3     4   ar
    13     4     5   ar
    14     5    17    1
    15    17    18    1
    16    18    19    1
    17    19    20    1
    18    20    21    1
    19    21    22    1
    20    21    23    1
    21    21    24    1
    22     5     6   ar
    23     6     1   ar
    24     9    10    1
@<TRIPOS>MOLECULE
*****
 24 24 0 0 0
SMALL
GASTEIGER

@<TRIPOS>ATOM
      1 C         137.9671  140.3394  163.8689 C.ar    1  UNL1       -0.0178
      2 C         138.4643  139.1810  163.0560 C.ar    1  UNL1       -0.0040
      3 C         139.0985  138.0044  163.7368 C.ar    1  UNL1        0.0028
      4 C         139.2354  137.9862  165.2304 C.ar    1  UNL1        0.0369
      5 C         138.7382  139.1446  166.0432 C.ar    1  UNL1        0.1382
      6 C         138.1040  140.3212  165.3625 C.ar    1  UNL1        0.0327
      7 C         137.3329  141.5160  163.1882 C.3     1  UNL1        0.0435
      8 C         137.9519  142.0879  161.9473 C.3     1  UNL1        0.0737
      9 N         137.9045  143.5664  161.6984 N.3     1  UNL1       -0.2895
     10 H         138.5599  143.7586  160.9409 H       1  UNL1        0.1237
     11 C         138.2297  144.5242  162.8061 C.3     1  UNL1        0.1552
     12 C         141.9869  145.3401  163.7899 C.3     1  UNL1        0.1149
     13 N         140.6464  144.6683  163.7489 N.am    1  UNL1       -0.2749
     14 C         140.3821  143.4686  164.6097 C.3     1  UNL1        0.1149
     15 C         139.5702  145.1961  162.8471 C.2     1  UNL1        0.2419
     16 O         139.8345  146.3958  161.9863 O.2     1  UNL1       -0.2734
     17 O         138.8751  139.1264  167.5369 O.3     1  UNL1       -0.4755
     18 C         139.8774  140.0172  168.2091 C.3     1  UNL1        0.2057
     19 C         141.1084  140.4524  167.4705 C.3     1  UNL1        0.0561
     20 C         142.3464  139.6065  167.5122 C.3     1  UNL1        0.1072
     21 C         142.8329  138.9273  166.2665 C.3     1  UNL1        0.3979
     22 F         143.3194  138.2481  165.0206 F       1  UNL1       -0.1700
     23 F         141.9605  139.8228  165.4376 F       1  UNL1       -0.1700
     24 F         143.7053  138.0319  167.0954 F       1  UNL1       -0.1700
@<TRIPOS>BOND
     1    12    13    1
     2    13    14    1
     3    13    15   am
     4    15    16    2
     5    15    11    1
     6    11     9    1
     7     9     8    1
     8     8     7    1
     9     7     1    1
    10     1     2   ar
    11     2     3   ar
    12     3     4   ar
    13     4     5   ar
    14     5    17    1
    15    17    18    1
    16    18    19    1
    17    19    20    1
    18    20    21    1
    19    21    22    1
    20    21    23    1
    21    21    24    1
    22     5     6   ar
    23     6     1   ar
    24     9    10    1
@<TRIPOS>MOLECULE
*****
 24 24 0 0 0
SMALL
GASTEIGER

@<TRIPOS>ATOM
      1 C         144.1885  142.8806  164.7183 C.ar    1  UNL1       -0.0178
      2 C         145.0774  142.1351  163.7675 C.ar    1  UNL1       -0.0040
      3 C         145.0635  140.6354  163.7471 C.ar    1  UNL1        0.0028
      4 C         144.1606  139.8810  164.6775 C.ar    1  UNL1        0.0369
      5 C         143.2717  140.6264  165.6283 C.ar    1  UNL1        0.1382
      6 C         143.2857  142.1262  165.6487 C.ar    1  UNL1        0.0327
      7 C         144.2025  144.3804  164.7388 C.3     1  UNL1        0.0435
      8 C         143.2416  145.1511  163.8828 C.3     1  UNL1        0.0737
      9 N         143.2484  144.9661  162.3943 N.3     1  UNL1       -0.2895
     10 H         143.2851  145.8984  161.9819 H       1  UNL1        0.1237
     11 C         142.1201  144.2400  161.7236 C.3     1  UNL1        0.1552
     12 C         138.4979  144.5560  163.3140 C.3     1  UNL1        0.1149
     13 N         139.7408  144.8869  162.5422 N.am    1  UNL1       -0.2749
     14 C         139.8472  146.1959  161.8173 C.3     1  UNL1        0.1149
     15 C         140.8772  143.9091  162.4953 C.2     1  UNL1        0.2419
     16 O         140.7707  142.6001  163.2203 O.2     1  UNL1       -0.2734
     17 O         142.3688  139.8720  166.5588 O.3     1  UNL1       -0.4755
     18 C         141.0875  139.2833  166.0473 C.3     1  UNL1        0.2057
     19 C         139.7734  139.8896  166.4419 C.3     1  UNL1        0.0561
     20 C         138.4924  139.3050  165.9250 C.3     1  UNL1        0.1072
     21 C         137.9829  138.0075  166.4788 C.3     1  UNL1        0.3979
     22 F         137.4733  136.7099  167.0327 F       1  UNL1       -0.1700
     23 F         137.4208  138.7342  167.6645 F       1  UNL1       -0.1700
     24 F         138.5450  137.2807  165.2932 F       1  UNL1       -0.1700
@<TRIPOS>BOND
     1    12    13    1
     2    13    14    1
     3    13    15   am
     4    15    16    2
     5    15    11    1
     6    11     9    1
     7     9     8    1
     8     8     7    1
     9     7     1    1
    10     1     2   ar
    11     2     3   ar
    12     3     4   ar
    13     4     5   ar
    14     5    17    1
    15    17    18    1
    16    18    19    1
    17    19    20    1
    18    20    21    1
    19    21    22    1
    20    21    23    1
    21    21    24    1
    22     5     6   ar
    23     6     1   ar
    24     9    10    1
@<TRIPOS>MOLECULE
*****
 24 24 0 0 0
SMALL
GASTEIGER

@<TRIPOS>ATOM
      1 C         140.3193  141.1650  166.3324 C.ar    1  UNL1       -0.0178
      2 C         139.8170  140.3301  167.4727 C.ar    1  UNL1       -0.0040
      3 C         138.6982  139.3553  167.2528 C.ar    1  UNL1        0.0028
      4 C         138.0819  139.2155  165.8925 C.ar    1  UNL1        0.0369
      5 C         138.5842  140.0505  164.7521 C.ar    1  UNL1        0.1382
      6 C         139.7029  141.0252  164.9721 C.ar    1  UNL1        0.0327
      7 C         141.4380  142.1397  166.5523 C.3     1  UNL1        0.0435
      8 C         142.7374  141.6707  167.1369 C.3     1  UNL1        0.0737
      9 N         143.5085  142.5633  168.0635 N.3     1  UNL1       -0.2895
     10 H         144.4781  142.5488  167.7473 H       1  UNL1        0.1237
     11 C         143.5289  142.2774  169.5359 C.3     1  UNL1        0.1552
     12 C         140.4031  140.3197  171.0011 C.3     1  UNL1        0.1149
     13 N         141.2470  141.4256  170.4401 N.am    1  UNL1       -0.2749
     14 C         140.6530  142.7856  170.2221 C.3     1  UNL1        0.1149
     15 C         142.6850  141.1715  170.0970 C.2     1  UNL1        0.2419
     16 O         143.2791  139.8115  170.3150 O.2     1  UNL1       -0.2734
     17 O         137.9678  139.9107  163.3917 O.3     1  UNL1       -0.4755
     18 C         138.2894  138.7175  162.5416 C.3     1  UNL1        0.2057
     19 C         139.0831  137.5806  163.1142 C.3     1  UNL1        0.0561
     20 C         140.5739  137.5500  162.9514 C.3     1  UNL1        0.1072
     21 C         141.4616  137.6164  164.1587 C.3     1  UNL1        0.3979
     22 F         142.3493  137.6828  165.3661 F       1  UNL1       -0.1700
     23 F         140.3681  137.0214  164.9955 F       1  UNL1       -0.1700
     24 F         142.5551  138.2113  163.3219 F       1  UNL1       -0.1700
@<TRIPOS>BOND
     1    12    13    1
     2    13    14    1
     3    13    15   am
     4    15    16    2
     5    15    11    1
     6    11     9    1
     7     9     8    1
     8     8     7    1
     9     7     1    1
    10     1     2   ar
    11     2     3   ar
    12     3     4   ar
    13     4     5   ar
    14     5    17    1
    15    17    18    1
    16    18    19    1
    17    19    20    1
    18    20    21    1
    19    21    22    1
    20    21    23    1
    21    21    24    1
    22     5     6   ar
    23     6     1   ar
    24     9    10    1
@<TRIPOS>MOLECULE
*****
 24 24 0 0 0
SMALL
GASTEIGER

@<TRIPOS>ATOM
      1 C         138.4405  139.0984  165.3188 C.ar    1  UNL1       -0.0178
      2 C         138.8751  138.0235  164.3672 C.ar    1  UNL1       -0.0040
      3 C         138.7433  138.2334  162.8878 C.ar    1  UNL1        0.0028
      4 C         138.1768  139.5181  162.3600 C.ar    1  UNL1        0.0369
      5 C         137.7421  140.5930  163.3117 C.ar    1  UNL1        0.1382
      6 C         137.8740  140.3831  164.7911 C.ar    1  UNL1        0.0327
      7 C         138.5723  138.8885  166.7982 C.3     1  UNL1        0.0435
      8 C         139.2912  139.9021  167.6384 C.3     1  UNL1        0.0737
      9 N         139.0935  139.9197  169.1252 N.3     1  UNL1       -0.2895
     10 H         138.0867  139.9301  169.2883 H       1  UNL1        0.1237
     11 C         139.6767  141.0315  169.9461 C.3     1  UNL1        0.1552
     12 C         143.3059  142.3252  168.9947 C.3     1  UNL1        0.1149
     13 N         142.2074  141.4734  169.5583 N.am    1  UNL1       -0.2749
     14 C         142.5410  140.2115  170.2976 C.3     1  UNL1        0.1149
     15 C         140.7753  141.8833  169.3825 C.2     1  UNL1        0.2419
     16 O         140.4416  143.1452  168.6432 O.2     1  UNL1       -0.2734
     17 O         137.1756  141.8778  162.7840 O.3     1  UNL1       -0.4755
     18 C         138.0950  142.9807  162.3504 C.3     1  UNL1        0.2057
     19 C         139.5691  142.8726  162.6064 C.3     1  UNL1        0.0561
     20 C         140.1663  143.5033  163.8293 C.3     1  UNL1        0.1072
     21 C         139.3310  144.3994  164.6948 C.3     1  UNL1        0.3979
     22 F         138.4956  145.2955  165.5605 F       1  UNL1       -0.1700
     23 F         139.5075  145.5161  163.7092 F       1  UNL1       -0.1700
     24 F         139.1544  143.2826  165.6805 F       1  UNL1       -0.1700
@<TRIPOS>BOND
     1    12    13    1
     2    13    14    1
     3    13    15   am
     4    15    16    2
     5    15    11    1
     6    11     9    1
     7     9     8    1
     8     8     7    1
     9     7     1    1
    10     1     2   ar
    11     2     3   ar
    12     3     4   ar
    13     4     5   ar
    14     5    17    1
    15    17    18    1
    16    18    19    1
    17    19    20    1
    18    20    21    1
    19    21    22    1
    20    21    23    1
    21    21    24    1
    22     5     6   ar
    23     6     1   ar
    24     9    10    1
@<TRIPOS>MOLECULE
*****
 24 24 0 0 0
SMALL
GASTEIGER

@<TRIPOS>ATOM
      1 C         138.7706  139.4497  165.2859 C.ar    1  UNL1       -0.0178
      2 C         139.0334  138.1751  164.5400 C.ar    1  UNL1       -0.0040
      3 C         138.6630  138.0644  163.0907 C.ar    1  UNL1        0.0028
      4 C         138.0299  139.2281  162.3873 C.ar    1  UNL1        0.0369
      5 C         137.7672  140.5026  163.1332 C.ar    1  UNL1        0.1382
      6 C         138.1375  140.6134  164.5825 C.ar    1  UNL1        0.0327
      7 C         139.1409  139.5605  166.7353 C.3     1  UNL1        0.0435
      8 C         140.3888  140.2895  167.1369 C.3     1  UNL1        0.0737
      9 N         141.7271  139.7994  166.6694 N.3     1  UNL1       -0.2895
     10 H         142.4183  140.1565  167.3290 H       1  UNL1        0.1237
     11 C         142.2169  140.1515  165.2959 C.3     1  UNL1        0.1552
     12 C         145.6227  141.6883  163.9588 C.3     1  UNL1        0.1149
     13 N         144.4532  140.7637  164.1238 N.am    1  UNL1       -0.2749
     14 C         144.3505  139.5266  163.2817 C.3     1  UNL1        0.1149
     15 C         143.3864  141.0761  165.1309 C.2     1  UNL1        0.2419
     16 O         143.4891  142.3133  165.9730 O.2     1  UNL1       -0.2734
     17 O         137.1340  141.6665  162.4298 O.3     1  UNL1       -0.4755
     18 C         137.8765  142.9642  162.3094 C.3     1  UNL1        0.2057
     19 C         137.7775  143.9890  163.4004 C.3     1  UNL1        0.0561
     20 C         139.0234  144.5263  164.0398 C.3     1  UNL1        0.1072
     21 C         139.4146  144.0754  165.4159 C.3     1  UNL1        0.3979
     22 F         139.8057  143.6244  166.7920 F       1  UNL1       -0.1700
     23 F         140.2796  143.0051  164.8193 F       1  UNL1       -0.1700
     24 F         138.5495  145.1457  166.0125 F       1  UNL1       -0.1700
@<TRIPOS>BOND
     1    12    13    1
     2    13    14    1
     3    13    15   am
     4    15    16    2
     5    15    11    1
     6    11     9    1
     7     9     8    1
     8     8     7    1
     9     7     1    1
    10     1     2   ar
    11     2     3   ar
    12     3     4   ar
    13     4     5   ar
    14     5    17    1
    15    17    18    1
    16    18    19    1
    17    19    20    1
    18    20    21    1
    19    21    22    1
    20    21    23    1
    21    21    24    1
    22     5     6   ar
    23     6     1   ar
    24     9    10    1
@<TRIPOS>MOLECULE
*****
 24 24 0 0 0
SMALL
GASTEIGER

@<TRIPOS>ATOM
      1 C         140.3072  137.9779  164.8405 C.ar    1  UNL1       -0.0178
      2 C         138.8992  137.6089  165.2029 C.ar    1  UNL1       -0.0040
      3 C         138.1686  138.3847  166.2585 C.ar    1  UNL1        0.0028
      4 C         138.8459  139.5294  166.9518 C.ar    1  UNL1        0.0369
      5 C         140.2539  139.8985  166.5894 C.ar    1  UNL1        0.1382
      6 C         140.9846  139.1227  165.5337 C.ar    1  UNL1        0.0327
      7 C         141.0378  137.2021  163.7849 C.3     1  UNL1        0.0435
      8 C         141.0519  137.6936  162.3678 C.3     1  UNL1        0.0737
      9 N         142.2422  137.4292  161.4940 N.3     1  UNL1       -0.2895
     10 H         142.3335  136.4160  161.4195 H       1  UNL1        0.1237
     11 C         143.5908  137.9580  161.8836 C.3     1  UNL1        0.1552
     12 C         144.9651  141.6640  162.2398 C.3     1  UNL1        0.1149
     13 N         144.5844  140.2544  162.5832 N.am    1  UNL1       -0.2749
     14 C         144.8167  139.7314  163.9698 C.3     1  UNL1        0.1149
     15 C         143.9715  139.3677  161.5402 C.2     1  UNL1        0.2419
     16 O         143.7392  139.8906  160.1535 O.2     1  UNL1       -0.2734
     17 O         140.9314  141.0433  167.2826 O.3     1  UNL1       -0.4755
     18 C         141.7153  142.0441  166.4866 C.3     1  UNL1        0.2057
     19 C         141.0175  142.9236  165.4918 C.3     1  UNL1        0.0561
     20 C         139.7350  143.6065  165.8642 C.3     1  UNL1        0.1072
     21 C         138.6278  143.7226  164.8590 C.3     1  UNL1        0.3979
     22 F         137.5205  143.8388  163.8537 F       1  UNL1       -0.1700
     23 F         138.9345  145.1811  164.6896 F       1  UNL1       -0.1700
     24 F         138.3210  142.2642  165.0284 F       1  UNL1       -0.1700
@<TRIPOS>BOND
     1    12    13    1
     2    13    14    1
     3    13    15   am
     4    15    16    2
     5    15    11    1
     6    11     9    1
     7     9     8    1
     8     8     7    1
     9     7     1    1
    10     1     2   ar
    11     2     3   ar
    12     3     4   ar
    13     4     5   ar
    14     5    17    1
    15    17    18    1
    16    18    19    1
    17    19    20    1
    18    20    21    1
    19    21    22    1
    20    21    23    1
    21    21    24    1
    22     5     6   ar
    23     6     1   ar
    24     9    10    1
@<TRIPOS>MOLECULE
*****
 24 24 0 0 0
SMALL
GASTEIGER

@<TRIPOS>ATOM
      1 C         142.4457  142.1284  163.8700 C.ar    1  UNL1       -0.0178
      2 C         143.4113  142.8415  164.7693 C.ar    1  UNL1       -0.0040
      3 C         143.8820  144.2223  164.4201 C.ar    1  UNL1        0.0028
      4 C         143.3870  144.8900  163.1715 C.ar    1  UNL1        0.0369
      5 C         142.4213  144.1769  162.2721 C.ar    1  UNL1        0.1382
      6 C         141.9506  142.7961  162.6213 C.ar    1  UNL1        0.0327
      7 C         141.9750  140.7477  164.2192 C.3     1  UNL1        0.0435
      8 C         140.8564  140.5626  165.2013 C.3     1  UNL1        0.0737
      9 N         139.6203  141.4061  165.0979 N.3     1  UNL1       -0.2895
     10 H         139.5260  141.9004  165.9851 H       1  UNL1        0.1237
     11 C         138.2946  140.7627  164.8176 C.3     1  UNL1        0.1552
     12 C         137.6305  139.1365  161.2589 C.3     1  UNL1        0.1149
     13 N         138.0968  139.3077  162.6743 N.am    1  UNL1       -0.2749
     14 C         138.8316  138.1952  163.3617 C.3     1  UNL1        0.1149
     15 C         137.8283  140.5914  163.4022 C.2     1  UNL1        0.2419
     16 O         137.0935  141.7040  162.7149 O.2     1  UNL1       -0.2734
     17 O         141.9263  144.8445  161.0234 O.3     1  UNL1       -0.4755
     18 C         140.5196  145.3609  160.9562 C.3     1  UNL1        0.2057
     19 C         139.8248  145.8096  162.2076 C.3     1  UNL1        0.0561
     20 C         138.8541  144.8960  162.8953 C.3     1  UNL1        0.1072
     21 C         138.8692  144.7739  164.3902 C.3     1  UNL1        0.3979
     22 F         138.8843  144.6518  165.8852 F       1  UNL1       -0.1700
     23 F         137.4239  144.3731  164.3721 F       1  UNL1       -0.1700
     24 F         140.3145  145.1746  164.4083 F       1  UNL1       -0.1700
@<TRIPOS>BOND
     1    12    13    1
     2    13    14    1
     3    13    15   am
     4    15    16    2
     5    15    11    1
     6    11     9    1
     7     9     8    1
     8     8     7    1
     9     7     1    1
    10     1     2   ar
    11     2     3   ar
    12     3     4   ar
    13     4     5   ar
    14     5    17    1
    15    17    18    1
    16    18    19    1
    17    19    20    1
    18    20    21    1
    19    21    22    1
    20    21    23    1
    21    21    24    1
    22     5     6   ar
    23     6     1   ar
    24     9    10    1
@<TRIPOS>MOLECULE
*****
 24 24 0 0 0
SMALL
GASTEIGER

@<TRIPOS>ATOM
      1 C         144.2041  140.3160  164.8515 C.ar    1  UNL1       -0.0178
      2 C         143.9142  138.9747  165.4572 C.ar    1  UNL1       -0.0040
      3 C         142.9247  138.8561  166.5783 C.ar    1  UNL1        0.0028
      4 C         142.2252  140.0788  167.0937 C.ar    1  UNL1        0.0369
      5 C         142.5151  141.4200  166.4880 C.ar    1  UNL1        0.1382
      6 C         143.5046  141.5387  165.3669 C.ar    1  UNL1        0.0327
      7 C         145.1936  140.4346  163.7304 C.3     1  UNL1        0.0435
      8 C         145.7392  141.7793  163.3507 C.3     1  UNL1        0.0737
      9 N         145.7035  142.2262  161.9193 N.3     1  UNL1       -0.2895
     10 H         146.4551  142.9061  161.8043 H       1  UNL1        0.1237
     11 C         144.4615  142.8551  161.3607 C.3     1  UNL1        0.1552
     12 C         141.4877  144.4242  163.4689 C.3     1  UNL1        0.1149
     13 N         142.2805  143.4611  162.6359 N.am    1  UNL1       -0.2749
     14 C         141.6851  142.1410  162.2449 C.3     1  UNL1        0.1149
     15 C         143.6687  143.8182  162.1938 C.2     1  UNL1        0.2419
     16 O         144.2641  145.1383  162.5847 O.2     1  UNL1       -0.2734
     17 O         141.8155  142.6428  167.0034 O.3     1  UNL1       -0.4755
     18 C         140.5553  142.5040  167.8051 C.3     1  UNL1        0.2057
     19 C         140.5513  142.8562  169.2632 C.3     1  UNL1        0.0561
     20 C         141.8394  142.8856  170.0312 C.3     1  UNL1        0.1072
     21 C         142.5447  141.6037  170.3620 C.3     1  UNL1        0.3979
     22 F         143.2501  140.3218  170.6927 F       1  UNL1       -0.1700
     23 F         143.7064  142.0233  169.5109 F       1  UNL1       -0.1700
     24 F         141.3830  141.1842  171.2130 F       1  UNL1       -0.1700
@<TRIPOS>BOND
     1    12    13    1
     2    13    14    1
     3    13    15   am
     4    15    16    2
     5    15    11    1
     6    11     9    1
     7     9     8    1
     8     8     7    1
     9     7     1    1
    10     1     2   ar
    11     2     3   ar
    12     3     4   ar
    13     4     5   ar
    14     5    17    1
    15    17    18    1
    16    18    19    1
    17    19    20    1
    18    20    21    1
    19    21    22    1
    20    21    23    1
    21    21    24    1
    22     5     6   ar
    23     6     1   ar
    24     9    10    1
