@<TRIPOS>MOLECULE
*****
 25 28 0 0 0
SMALL
GASTEIGER

@<TRIPOS>ATOM
      1 C         139.7931  140.0206  167.6946 C.3     1  UNL1        0.1907
      2 C         140.9264  140.5396  166.8601 C.ar    1  UNL1        0.0173
      3 C         141.0099  142.0014  166.5344 C.ar    1  UNL1       -0.0008
      4 C         142.1431  142.5204  165.7000 C.ar    1  UNL1       -0.0002
      5 C         143.1930  141.5775  165.1912 C.ar    1  UNL1       -0.0000
      6 C         144.3263  142.0965  164.3568 C.ar    1  UNL1       -0.0000
      7 C         145.3761  141.1536  163.8481 C.ar    1  UNL1       -0.0000
      8 C         145.2927  139.6918  164.1738 C.ar    1  UNL1       -0.0000
      9 C         144.1594  139.1728  165.0082 C.ar    1  UNL1       -0.0000
     10 C         143.1096  140.1157  165.5169 C.ar    1  UNL1       -0.0002
     11 C         141.9762  139.5967  166.3514 C.ar    1  UNL1       -0.0008
     12 C         139.8994  140.0264  169.1908 C.3     1  UNL1        0.0758
     13 C         140.9972  139.7579  170.1772 C.3     1  UNL1        0.0739
     14 N         140.0499  140.0346  171.3068 N.3     1  UNL1       -0.2972
     15 C         138.9522  140.3031  170.3205 C.3     1  UNL1        0.0739
     16 H         140.3049  140.8417  171.8759 H       1  UNL1        0.1233
     17 O         138.5534  139.4960  167.0329 O.3     1  UNL1       -0.4746
     18 CL        138.4978  138.5167  161.1136 Cl      1  UNL1       -0.0814
     19 C         138.5117  138.7615  162.5934 C.ar    1  UNL1        0.0684
     20 C         138.9523  137.6752  163.5292 C.ar    1  UNL1        0.0154
     21 C         138.9662  137.9200  165.0091 C.ar    1  UNL1        0.0378
     22 C         138.5395  139.2511  165.5531 C.ar    1  UNL1        0.1398
     23 C         138.0990  140.3375  164.6172 C.ar    1  UNL1        0.0491
     24 C         138.0851  140.0927  163.1374 C.ar    1  UNL1        0.0712
     25 CL        137.6446  141.1790  162.2016 Cl      1  UNL1       -0.0813
@<TRIPOS>BOND
     1    18    19    1
     2    19    20   ar
     3    20    21   ar
     4    21    22   ar
     5    22    17    1
     6    17     1    1
     7     1     2    1
     8     2     3   ar
     9     3     4   ar
    10     4     5   ar
    11     5     6   ar
    12     6     7   ar
    13     7     8   ar
    14     8     9   ar
    15     9    10   ar
    16    10    11   ar
    17     1    12    1
    18    12    13    1
    19    13    14    1
    20    14    15    1
    21    22    23   ar
    22    23    24   ar
    23    24    25    1
    24    24    19   ar
    25    11     2   ar
    26    15    12    1
    27    10     5   ar
    28    14    16    1
@<TRIPOS>MOLECULE
*****
 25 28 0 0 0
SMALL
GASTEIGER

@<TRIPOS>ATOM
      1 C         140.8162  139.9247  168.0078 C.3     1  UNL1        0.1907
      2 C         141.8975  140.0391  166.9745 C.ar    1  UNL1        0.0173
      3 C         142.6314  138.8131  166.5182 C.ar    1  UNL1       -0.0008
      4 C         143.7127  138.9274  165.4849 C.ar    1  UNL1       -0.0002
      5 C         144.0601  140.2677  164.9079 C.ar    1  UNL1       -0.0000
      6 C         145.1414  140.3820  163.8746 C.ar    1  UNL1       -0.0000
      7 C         145.4887  141.7223  163.2976 C.ar    1  UNL1       -0.0000
      8 C         144.7548  142.9483  163.7539 C.ar    1  UNL1       -0.0000
      9 C         143.6735  142.8340  164.7872 C.ar    1  UNL1       -0.0000
     10 C         143.3262  141.4937  165.3642 C.ar    1  UNL1       -0.0002
     11 C         142.2448  141.3794  166.3975 C.ar    1  UNL1       -0.0008
     12 C         141.1275  140.1876  169.4514 C.3     1  UNL1        0.0758
     13 C         142.3786  140.4529  170.2354 C.3     1  UNL1        0.0739
     14 N         141.5678  140.5594  171.4929 N.3     1  UNL1       -0.2972
     15 C         140.3169  140.2942  170.7090 C.3     1  UNL1        0.0739
     16 H         141.5975  141.4802  171.9308 H       1  UNL1        0.1233
     17 O         139.4236  139.5475  167.5976 O.3     1  UNL1       -0.4746
     18 CL        138.0046  139.1859  161.7790 Cl      1  UNL1       -0.0814
     19 C         138.3593  139.2763  163.2336 C.ar    1  UNL1        0.0684
     20 C         138.9098  138.0773  163.9473 C.ar    1  UNL1        0.0154
     21 C         139.2646  138.1677  165.4020 C.ar    1  UNL1        0.0378
     22 C         139.0688  139.4571  166.1429 C.ar    1  UNL1        0.1398
     23 C         138.5183  140.6562  165.4292 C.ar    1  UNL1        0.0491
     24 C         138.1636  140.5657  163.9746 C.ar    1  UNL1        0.0712
     25 CL        137.6131  141.7647  163.2610 Cl      1  UNL1       -0.0813
@<TRIPOS>BOND
     1    18    19    1
     2    19    20   ar
     3    20    21   ar
     4    21    22   ar
     5    22    17    1
     6    17     1    1
     7     1     2    1
     8     2     3   ar
     9     3     4   ar
    10     4     5   ar
    11     5     6   ar
    12     6     7   ar
    13     7     8   ar
    14     8     9   ar
    15     9    10   ar
    16    10    11   ar
    17     1    12    1
    18    12    13    1
    19    13    14    1
    20    14    15    1
    21    22    23   ar
    22    23    24   ar
    23    24    25    1
    24    24    19   ar
    25    11     2   ar
    26    15    12    1
    27    10     5   ar
    28    14    16    1
@<TRIPOS>MOLECULE
*****
 25 28 0 0 0
SMALL
GASTEIGER

@<TRIPOS>ATOM
      1 C         142.7711  141.6743  167.6730 C.3     1  UNL1        0.1907
      2 C         142.5761  142.4912  166.4300 C.ar    1  UNL1        0.0173
      3 C         143.7519  142.8275  165.5615 C.ar    1  UNL1       -0.0008
      4 C         143.5569  143.6444  164.3186 C.ar    1  UNL1       -0.0002
      5 C         142.1861  144.1249  163.9443 C.ar    1  UNL1       -0.0000
      6 C         141.9911  144.9417  162.7014 C.ar    1  UNL1       -0.0000
      7 C         140.6204  145.4222  162.3271 C.ar    1  UNL1       -0.0000
      8 C         139.4446  145.0858  163.1957 C.ar    1  UNL1       -0.0000
      9 C         139.6395  144.2690  164.4385 C.ar    1  UNL1       -0.0000
     10 C         141.0103  143.7885  164.8128 C.ar    1  UNL1       -0.0002
     11 C         141.2053  142.9716  166.0557 C.ar    1  UNL1       -0.0008
     12 C         142.9687  142.3554  168.9947 C.3     1  UNL1        0.0758
     13 C         142.0811  143.1003  169.9473 C.3     1  UNL1        0.0739
     14 N         143.2481  143.3186  170.8640 N.3     1  UNL1       -0.2972
     15 C         144.1357  142.5738  169.9115 C.3     1  UNL1        0.0739
     16 H         143.1500  142.8733  171.7764 H       1  UNL1        0.1233
     17 O         142.7686  140.1764  167.5941 O.3     1  UNL1       -0.4746
     18 CL        138.9321  137.3719  163.9313 Cl      1  UNL1       -0.0814
     19 C         139.8912  138.0730  164.8470 C.ar    1  UNL1        0.0684
     20 C         141.3692  137.8955  164.6633 C.ar    1  UNL1        0.0154
     21 C         142.3284  138.5966  165.5790 C.ar    1  UNL1        0.0378
     22 C         141.8095  139.4753  166.6784 C.ar    1  UNL1        0.1398
     23 C         140.3313  139.6528  166.8620 C.ar    1  UNL1        0.0491
     24 C         139.3722  138.9517  165.9464 C.ar    1  UNL1        0.0712
     25 CL        137.8942  139.1292  166.1300 Cl      1  UNL1       -0.0813
@<TRIPOS>BOND
     1    18    19    1
     2    19    20   ar
     3    20    21   ar
     4    21    22   ar
     5    22    17    1
     6    17     1    1
     7     1     2    1
     8     2     3   ar
     9     3     4   ar
    10     4     5   ar
    11     5     6   ar
    12     6     7   ar
    13     7     8   ar
    14     8     9   ar
    15     9    10   ar
    16    10    11   ar
    17     1    12    1
    18    12    13    1
    19    13    14    1
    20    14    15    1
    21    22    23   ar
    22    23    24   ar
    23    24    25    1
    24    24    19   ar
    25    11     2   ar
    26    15    12    1
    27    10     5   ar
    28    14    16    1
@<TRIPOS>MOLECULE
*****
 25 28 0 0 0
SMALL
GASTEIGER

@<TRIPOS>ATOM
      1 C         140.9745  140.0105  167.6819 C.3     1  UNL1        0.1907
      2 C         140.1231  140.6705  166.6381 C.ar    1  UNL1        0.0173
      3 C         139.0196  139.9013  165.9740 C.ar    1  UNL1       -0.0008
      4 C         138.1683  140.5613  164.9302 C.ar    1  UNL1       -0.0002
      5 C         138.4203  141.9904  164.5503 C.ar    1  UNL1       -0.0000
      6 C         137.5689  142.6503  163.5065 C.ar    1  UNL1       -0.0000
      7 C         137.8210  144.0793  163.1267 C.ar    1  UNL1       -0.0000
      8 C         138.9244  144.8484  163.7907 C.ar    1  UNL1       -0.0000
      9 C         139.7758  144.1885  164.8345 C.ar    1  UNL1       -0.0000
     10 C         139.5237  142.7595  165.2144 C.ar    1  UNL1       -0.0002
     11 C         140.3751  142.0995  166.2582 C.ar    1  UNL1       -0.0008
     12 C         140.5083  139.9579  169.1067 C.3     1  UNL1        0.0758
     13 C         139.2278  140.2846  169.8164 C.3     1  UNL1        0.0739
     14 N         139.8490  139.8836  171.1215 N.3     1  UNL1       -0.2972
     15 C         141.1294  139.5570  170.4119 C.3     1  UNL1        0.0739
     16 H         139.4028  139.0812  171.5660 H       1  UNL1        0.1233
     17 O         142.2920  139.4031  167.3010 O.3     1  UNL1       -0.4746
     18 CL        143.6501  138.5681  161.5168 Cl      1  UNL1       -0.0814
     19 C         143.3106  138.7768  162.9628 C.ar    1  UNL1        0.0684
     20 C         142.2944  137.8974  163.6291 C.ar    1  UNL1        0.0154
     21 C         141.9548  138.1062  165.0752 C.ar    1  UNL1        0.0378
     22 C         142.6315  139.1943  165.8550 C.ar    1  UNL1        0.1398
     23 C         143.6478  140.0737  165.1886 C.ar    1  UNL1        0.0491
     24 C         143.9873  139.8650  163.7426 C.ar    1  UNL1        0.0712
     25 CL        145.0035  140.7443  163.0763 Cl      1  UNL1       -0.0813
@<TRIPOS>BOND
     1    18    19    1
     2    19    20   ar
     3    20    21   ar
     4    21    22   ar
     5    22    17    1
     6    17     1    1
     7     1     2    1
     8     2     3   ar
     9     3     4   ar
    10     4     5   ar
    11     5     6   ar
    12     6     7   ar
    13     7     8   ar
    14     8     9   ar
    15     9    10   ar
    16    10    11   ar
    17     1    12    1
    18    12    13    1
    19    13    14    1
    20    14    15    1
    21    22    23   ar
    22    23    24   ar
    23    24    25    1
    24    24    19   ar
    25    11     2   ar
    26    15    12    1
    27    10     5   ar
    28    14    16    1
@<TRIPOS>MOLECULE
*****
 25 28 0 0 0
SMALL
GASTEIGER

@<TRIPOS>ATOM
      1 C         142.6367  139.9749  167.5461 C.3     1  UNL1        0.1907
      2 C         142.1673  141.1348  166.7188 C.ar    1  UNL1        0.0173
      3 C         140.7035  141.4506  166.6323 C.ar    1  UNL1       -0.0008
      4 C         140.2341  142.6105  165.8050 C.ar    1  UNL1       -0.0002
      5 C         141.2285  143.4546  165.0642 C.ar    1  UNL1       -0.0000
      6 C         140.7592  144.6144  164.2370 C.ar    1  UNL1       -0.0000
      7 C         141.7536  145.4584  163.4963 C.ar    1  UNL1       -0.0000
      8 C         143.2174  145.1426  163.5828 C.ar    1  UNL1       -0.0000
      9 C         143.6868  143.9828  164.4101 C.ar    1  UNL1       -0.0000
     10 C         142.6924  143.1388  165.1508 C.ar    1  UNL1       -0.0002
     11 C         143.1617  141.9788  165.9781 C.ar    1  UNL1       -0.0008
     12 C         142.6832  140.0900  169.0410 C.3     1  UNL1        0.0758
     13 C         142.3856  139.1673  170.1856 C.3     1  UNL1        0.0739
     14 N         142.7489  140.2528  171.1550 N.3     1  UNL1       -0.2972
     15 C         143.0464  141.1754  170.0104 C.3     1  UNL1        0.0739
     16 H         143.5581  140.0374  171.7374 H       1  UNL1        0.1233
     17 O         143.0596  138.7000  166.8786 O.3     1  UNL1       -0.4746
     18 CL        142.1765  137.9609  160.9902 Cl      1  UNL1       -0.0814
     19 C         142.3972  138.1456  162.4623 C.ar    1  UNL1        0.0684
     20 C         143.7200  138.6423  162.9657 C.ar    1  UNL1        0.0154
     21 C         143.9408  138.8271  164.4379 C.ar    1  UNL1        0.0378
     22 C         142.8388  138.5152  165.4065 C.ar    1  UNL1        0.1398
     23 C         141.5159  138.0185  164.9030 C.ar    1  UNL1        0.0491
     24 C         141.2952  137.8338  163.4309 C.ar    1  UNL1        0.0712
     25 CL        139.9724  137.3371  162.9274 Cl      1  UNL1       -0.0813
@<TRIPOS>BOND
     1    18    19    1
     2    19    20   ar
     3    20    21   ar
     4    21    22   ar
     5    22    17    1
     6    17     1    1
     7     1     2    1
     8     2     3   ar
     9     3     4   ar
    10     4     5   ar
    11     5     6   ar
    12     6     7   ar
    13     7     8   ar
    14     8     9   ar
    15     9    10   ar
    16    10    11   ar
    17     1    12    1
    18    12    13    1
    19    13    14    1
    20    14    15    1
    21    22    23   ar
    22    23    24   ar
    23    24    25    1
    24    24    19   ar
    25    11     2   ar
    26    15    12    1
    27    10     5   ar
    28    14    16    1
@<TRIPOS>MOLECULE
*****
 25 28 0 0 0
SMALL
GASTEIGER

@<TRIPOS>ATOM
      1 C         139.2272  139.5573  164.1338 C.3     1  UNL1        0.1907
      2 C         139.2832  139.8969  165.5939 C.ar    1  UNL1        0.0173
      3 C         138.5221  139.0686  166.5862 C.ar    1  UNL1       -0.0008
      4 C         138.5781  139.4081  168.0462 C.ar    1  UNL1       -0.0002
      5 C         139.3953  140.5759  168.5139 C.ar    1  UNL1       -0.0000
      6 C         139.4513  140.9154  169.9738 C.ar    1  UNL1       -0.0000
      7 C         140.2684  142.0831  170.4415 C.ar    1  UNL1       -0.0000
      8 C         141.0295  142.9113  169.4491 C.ar    1  UNL1       -0.0000
      9 C         140.9735  142.5718  167.9892 C.ar    1  UNL1       -0.0000
     10 C         140.1564  141.4041  167.5215 C.ar    1  UNL1       -0.0002
     11 C         140.1003  141.0646  166.0615 C.ar    1  UNL1       -0.0008
     12 C         140.0692  138.4411  163.5905 C.3     1  UNL1        0.0758
     13 C         140.8976  137.3464  164.1951 C.3     1  UNL1        0.0739
     14 N         141.2600  136.8626  162.8223 N.3     1  UNL1       -0.2972
     15 C         140.4317  137.9573  162.2178 C.3     1  UNL1        0.0739
     16 H         140.9261  135.9224  162.6104 H       1  UNL1        0.1233
     17 O         138.3292  140.3339  163.2171 O.3     1  UNL1       -0.4746
     18 CL        139.5559  146.0729  161.9688 Cl      1  UNL1       -0.0814
     19 C         139.2493  144.6382  162.2809 C.ar    1  UNL1        0.0684
     20 C         137.9700  144.2790  162.9768 C.ar    1  UNL1        0.0154
     21 C         137.6633  142.8442  163.2890 C.ar    1  UNL1        0.0378
     22 C         138.6358  141.7687  162.9050 C.ar    1  UNL1        0.1398
     23 C         139.9151  142.1279  162.2090 C.ar    1  UNL1        0.0491
     24 C         140.2218  143.5627  161.8969 C.ar    1  UNL1        0.0712
     25 CL        141.5011  143.9219  161.2009 Cl      1  UNL1       -0.0813
@<TRIPOS>BOND
     1    18    19    1
     2    19    20   ar
     3    20    21   ar
     4    21    22   ar
     5    22    17    1
     6    17     1    1
     7     1     2    1
     8     2     3   ar
     9     3     4   ar
    10     4     5   ar
    11     5     6   ar
    12     6     7   ar
    13     7     8   ar
    14     8     9   ar
    15     9    10   ar
    16    10    11   ar
    17     1    12    1
    18    12    13    1
    19    13    14    1
    20    14    15    1
    21    22    23   ar
    22    23    24   ar
    23    24    25    1
    24    24    19   ar
    25    11     2   ar
    26    15    12    1
    27    10     5   ar
    28    14    16    1
@<TRIPOS>MOLECULE
*****
 25 28 0 0 0
SMALL
GASTEIGER

@<TRIPOS>ATOM
      1 C         143.4848  139.5209  164.3040 C.3     1  UNL1        0.1907
      2 C         142.9946  139.8233  165.6890 C.ar    1  UNL1        0.0173
      3 C         143.2406  138.8475  166.8014 C.ar    1  UNL1       -0.0008
      4 C         142.7505  139.1499  168.1864 C.ar    1  UNL1       -0.0002
      5 C         142.0143  140.4281  168.4591 C.ar    1  UNL1       -0.0000
      6 C         141.5242  140.7305  169.8441 C.ar    1  UNL1       -0.0000
      7 C         140.7881  142.0087  170.1168 C.ar    1  UNL1       -0.0000
      8 C         140.5421  142.9845  169.0044 C.ar    1  UNL1       -0.0000
      9 C         141.0322  142.6821  167.6194 C.ar    1  UNL1       -0.0000
     10 C         141.7683  141.4039  167.3467 C.ar    1  UNL1       -0.0002
     11 C         142.2585  141.1015  165.9617 C.ar    1  UNL1       -0.0008
     12 C         144.4433  140.4552  163.6269 C.3     1  UNL1        0.0758
     13 C         144.7190  140.8447  162.2048 C.3     1  UNL1        0.0739
     14 N         145.7988  141.7764  162.6695 N.3     1  UNL1       -0.2972
     15 C         145.5231  141.3869  164.0915 C.3     1  UNL1        0.0739
     16 H         145.6177  142.7590  162.4643 H       1  UNL1        0.1233
     17 O         143.0165  138.2842  163.5960 O.3     1  UNL1       -0.4746
     18 CL        137.3753  137.9346  161.5825 Cl      1  UNL1       -0.0814
     19 C         138.7856  138.0220  162.0859 C.ar    1  UNL1        0.0684
     20 C         139.0816  137.7717  163.5349 C.ar    1  UNL1        0.0154
     21 C         140.4919  137.8591  164.0383 C.ar    1  UNL1        0.0378
     22 C         141.6062  138.1968  163.0926 C.ar    1  UNL1        0.1398
     23 C         141.3102  138.4471  161.6436 C.ar    1  UNL1        0.0491
     24 C         139.8999  138.3597  161.1402 C.ar    1  UNL1        0.0712
     25 CL        139.6039  138.6100  159.6912 Cl      1  UNL1       -0.0813
@<TRIPOS>BOND
     1    18    19    1
     2    19    20   ar
     3    20    21   ar
     4    21    22   ar
     5    22    17    1
     6    17     1    1
     7     1     2    1
     8     2     3   ar
     9     3     4   ar
    10     4     5   ar
    11     5     6   ar
    12     6     7   ar
    13     7     8   ar
    14     8     9   ar
    15     9    10   ar
    16    10    11   ar
    17     1    12    1
    18    12    13    1
    19    13    14    1
    20    14    15    1
    21    22    23   ar
    22    23    24   ar
    23    24    25    1
    24    24    19   ar
    25    11     2   ar
    26    15    12    1
    27    10     5   ar
    28    14    16    1
@<TRIPOS>MOLECULE
*****
 25 28 0 0 0
SMALL
GASTEIGER

@<TRIPOS>ATOM
      1 C         139.6363  139.2749  163.6720 C.3     1  UNL1        0.1907
      2 C         139.4737  139.5614  165.1354 C.ar    1  UNL1        0.0173
      3 C         138.6059  138.6771  165.9809 C.ar    1  UNL1       -0.0008
      4 C         138.4433  138.9636  167.4442 C.ar    1  UNL1       -0.0002
      5 C         139.1485  140.1345  168.0621 C.ar    1  UNL1       -0.0000
      6 C         138.9859  140.4210  169.5255 C.ar    1  UNL1       -0.0000
      7 C         139.6911  141.5919  170.1433 C.ar    1  UNL1       -0.0000
      8 C         140.5588  142.4763  169.2978 C.ar    1  UNL1       -0.0000
      9 C         140.7214  142.1897  167.8345 C.ar    1  UNL1       -0.0000
     10 C         140.0163  141.0189  167.2166 C.ar    1  UNL1       -0.0002
     11 C         140.1789  140.7323  165.7532 C.ar    1  UNL1       -0.0008
     12 C         138.5345  139.6179  162.7136 C.3     1  UNL1        0.0758
     13 C         137.6997  140.8358  162.4491 C.3     1  UNL1        0.0739
     14 N         136.9763  140.1030  161.3584 N.3     1  UNL1       -0.2972
     15 C         137.8110  138.8852  161.6229 C.3     1  UNL1        0.0739
     16 H         137.1072  140.5039  160.4296 H       1  UNL1        0.1233
     17 O         140.9006  138.6453  163.1669 O.3     1  UNL1       -0.4746
     18 CL        146.1038  141.6017  163.5978 Cl      1  UNL1       -0.0814
     19 C         144.8030  140.8627  163.4901 C.ar    1  UNL1        0.0684
     20 C         144.6298  139.5443  164.1842 C.ar    1  UNL1        0.0154
     21 C         143.3290  138.8051  164.0765 C.ar    1  UNL1        0.0378
     22 C         142.2014  139.3844  163.2747 C.ar    1  UNL1        0.1398
     23 C         142.3746  140.7028  162.5805 C.ar    1  UNL1        0.0491
     24 C         143.6754  141.4419  162.6882 C.ar    1  UNL1        0.0712
     25 CL        143.8486  142.7603  161.9941 Cl      1  UNL1       -0.0813
@<TRIPOS>BOND
     1    18    19    1
     2    19    20   ar
     3    20    21   ar
     4    21    22   ar
     5    22    17    1
     6    17     1    1
     7     1     2    1
     8     2     3   ar
     9     3     4   ar
    10     4     5   ar
    11     5     6   ar
    12     6     7   ar
    13     7     8   ar
    14     8     9   ar
    15     9    10   ar
    16    10    11   ar
    17     1    12    1
    18    12    13    1
    19    13    14    1
    20    14    15    1
    21    22    23   ar
    22    23    24   ar
    23    24    25    1
    24    24    19   ar
    25    11     2   ar
    26    15    12    1
    27    10     5   ar
    28    14    16    1
@<TRIPOS>MOLECULE
*****
 25 28 0 0 0
SMALL
GASTEIGER

@<TRIPOS>ATOM
      1 C         141.5491  141.1742  168.1014 C.3     1  UNL1        0.1907
      2 C         141.5512  142.0846  166.9092 C.ar    1  UNL1        0.0173
      3 C         140.2970  142.8071  166.5151 C.ar    1  UNL1       -0.0008
      4 C         140.2990  143.7175  165.3231 C.ar    1  UNL1       -0.0002
      5 C         141.5552  143.9055  164.5250 C.ar    1  UNL1       -0.0000
      6 C         141.5571  144.8160  163.3330 C.ar    1  UNL1       -0.0000
      7 C         142.8132  145.0040  162.5350 C.ar    1  UNL1       -0.0000
      8 C         144.0673  144.2816  162.9290 C.ar    1  UNL1       -0.0000
      9 C         144.0654  143.3711  164.1211 C.ar    1  UNL1       -0.0000
     10 C         142.8093  143.1831  164.9191 C.ar    1  UNL1       -0.0002
     11 C         142.8072  142.2727  166.1112 C.ar    1  UNL1       -0.0008
     12 C         141.8464  141.7235  169.4651 C.3     1  UNL1        0.0758
     13 C         142.0948  141.1259  170.8184 C.3     1  UNL1        0.0739
     14 N         142.2668  142.5005  171.3937 N.3     1  UNL1       -0.2972
     15 C         142.0183  143.0980  170.0406 C.3     1  UNL1        0.0739
     16 H         143.1992  142.6829  171.7647 H       1  UNL1        0.1233
     17 O         141.2499  139.7144  167.9297 O.3     1  UNL1       -0.4746
     18 CL        138.6378  137.7596  162.8943 Cl      1  UNL1       -0.0814
     19 C         139.2908  138.2483  164.1532 C.ar    1  UNL1        0.0684
     20 C         138.4565  138.8429  165.2487 C.ar    1  UNL1        0.0154
     21 C         139.1095  139.3316  166.5076 C.ar    1  UNL1        0.0378
     22 C         140.5968  139.2257  166.6709 C.ar    1  UNL1        0.1398
     23 C         141.4311  138.6311  165.5752 C.ar    1  UNL1        0.0491
     24 C         140.7781  138.1424  164.3164 C.ar    1  UNL1        0.0712
     25 CL        141.6124  137.5478  163.2208 Cl      1  UNL1       -0.0813
@<TRIPOS>BOND
     1    18    19    1
     2    19    20   ar
     3    20    21   ar
     4    21    22   ar
     5    22    17    1
     6    17     1    1
     7     1     2    1
     8     2     3   ar
     9     3     4   ar
    10     4     5   ar
    11     5     6   ar
    12     6     7   ar
    13     7     8   ar
    14     8     9   ar
    15     9    10   ar
    16    10    11   ar
    17     1    12    1
    18    12    13    1
    19    13    14    1
    20    14    15    1
    21    22    23   ar
    22    23    24   ar
    23    24    25    1
    24    24    19   ar
    25    11     2   ar
    26    15    12    1
    27    10     5   ar
    28    14    16    1
