@<TRIPOS>MOLECULE
*****
 26 29 0 0 0
SMALL
GASTEIGER

@<TRIPOS>ATOM
      1 C         138.5535  139.1527  165.0357 C.3     1  UNL1        0.0767
      2 C         139.1770  138.2909  163.9781 C.3     1  UNL1        0.0092
      3 C         138.6915  139.2373  162.9204 C.3     1  UNL1        0.0036
      4 C         139.4194  138.1599  162.1727 C.3     1  UNL1        0.0174
      5 C         139.5170  138.2197  160.6771 C.3     1  UNL1        0.0720
      6 N         138.8867  139.3571  159.9293 N.3     1  UNL1       -0.2738
      7 C         138.1587  140.4345  160.6770 C.3     1  UNL1        0.0720
      8 C         138.0612  140.3746  162.1726 C.3     1  UNL1        0.0174
      9 C         138.0680  140.0992  163.9780 C.3     1  UNL1        0.0092
     10 N         140.5352  142.1904  169.0474 N.3     1  UNL1       -0.2711
     11 C         140.6328  142.2503  167.5518 C.3     1  UNL1        0.0939
     12 C         139.9397  141.2177  166.7130 C.3     1  UNL1        0.1107
     13 N         139.1490  140.1254  167.3699 N.am    1  UNL1       -0.2767
     14 C         138.4559  139.0928  166.5313 C.2     1  UNL1        0.2252
     15 O         137.6652  138.0005  167.1881 O.2     1  UNL1       -0.2749
     16 C         139.0514  140.0655  168.8656 C.3     1  UNL1        0.1107
     17 C         139.7445  141.0981  169.7043 C.3     1  UNL1        0.0939
     18 C         140.5175  144.4920  170.2526 C.3     1  UNL1        0.0173
     19 C         141.2283  143.2230  169.8861 C.3     1  UNL1        0.0577
     20 C         142.6323  142.9865  170.3584 C.3     1  UNL1        0.0173
     21 C         138.9843  139.4169  158.4336 C.3     1  UNL1        0.0625
     22 C         139.7970  138.3962  157.6936 C.3     1  UNL1        0.0481
     23 C         139.8946  138.4560  156.1979 C.3     1  UNL1        0.1435
     24 O         139.1795  139.5366  155.4423 O.3     1  UNL1       -0.3537
     25 C         138.3667  140.5573  156.1824 C.3     1  UNL1        0.1435
     26 C         138.2691  140.4974  157.6779 C.3     1  UNL1        0.0481
@<TRIPOS>BOND
     1    18    19    1
     2    19    20    1
     3    19    10    1
     4    10    11    1
     5    11    12    1
     6    12    13    1
     7    13    14   am
     8    14    15    2
     9    14     1    1
    10     1     2    1
    11     2     3    1
    12     3     4    1
    13     4     5    1
    14     5     6    1
    15     6    21    1
    16    21    22    1
    17    22    23    1
    18    23    24    1
    19    24    25    1
    20    25    26    1
    21     6     7    1
    22     7     8    1
    23     3     9    1
    24    13    16    1
    25    16    17    1
    26    17    10    1
    27     9     1    1
    28     8     3    1
    29    26    21    1
@<TRIPOS>MOLECULE
*****
 26 29 0 0 0
SMALL
GASTEIGER

@<TRIPOS>ATOM
      1 C         143.2348  138.5761  165.0066 C.3     1  UNL1        0.0767
      2 C         144.0572  139.1266  163.8793 C.3     1  UNL1        0.0092
      3 C         143.0574  138.6003  162.8927 C.3     1  UNL1        0.0036
      4 C         144.1106  139.2682  162.0593 C.3     1  UNL1        0.0174
      5 C         143.9851  139.2853  160.5647 C.3     1  UNL1        0.0720
      6 N         142.8065  138.6345  159.9035 N.3     1  UNL1       -0.2738
      7 C         141.7533  137.9665  160.7369 C.3     1  UNL1        0.0720
      8 C         141.8788  137.9494  162.2315 C.3     1  UNL1        0.0174
      9 C         142.2350  138.0498  164.0199 C.3     1  UNL1        0.0092
     10 N         140.9915  141.4640  168.9912 N.3     1  UNL1       -0.2711
     11 C         140.8660  141.4810  167.4966 C.3     1  UNL1        0.0939
     12 C         141.6557  140.5127  166.6665 C.3     1  UNL1        0.1107
     13 N         142.5707  139.5273  167.3312 N.am    1  UNL1       -0.2767
     14 C         143.3603  138.5590  166.5012 C.2     1  UNL1        0.2252
     15 O         144.2753  137.5737  167.1658 O.2     1  UNL1       -0.2749
     16 C         142.6961  139.5103  168.8259 C.3     1  UNL1        0.1107
     17 C         141.9065  140.4786  169.6558 C.3     1  UNL1        0.0939
     18 C         140.5224  143.8968  169.7729 C.3     1  UNL1        0.0173
     19 C         140.2019  142.4322  169.8212 C.3     1  UNL1        0.0577
     20 C         139.0918  141.9360  170.6995 C.3     1  UNL1        0.0173
     21 C         142.6811  138.6516  158.4088 C.3     1  UNL1        0.0625
     22 C         142.5564  139.9575  157.6815 C.3     1  UNL1        0.0481
     23 C         142.4310  139.9746  156.1868 C.3     1  UNL1        0.1435
     24 O         142.4302  138.6857  155.4195 O.3     1  UNL1       -0.3537
     25 C         142.5549  137.3798  156.1468 C.3     1  UNL1        0.1435
     26 C         142.6803  137.3627  157.6414 C.3     1  UNL1        0.0481
@<TRIPOS>BOND
     1    18    19    1
     2    19    20    1
     3    19    10    1
     4    10    11    1
     5    11    12    1
     6    12    13    1
     7    13    14   am
     8    14    15    2
     9    14     1    1
    10     1     2    1
    11     2     3    1
    12     3     4    1
    13     4     5    1
    14     5     6    1
    15     6    21    1
    16    21    22    1
    17    22    23    1
    18    23    24    1
    19    24    25    1
    20    25    26    1
    21     6     7    1
    22     7     8    1
    23     3     9    1
    24    13    16    1
    25    16    17    1
    26    17    10    1
    27     9     1    1
    28     8     3    1
    29    26    21    1
@<TRIPOS>MOLECULE
*****
 26 29 0 0 0
SMALL
GASTEIGER

@<TRIPOS>ATOM
      1 C         140.6554  144.7787  162.4025 C.3     1  UNL1        0.0767
      2 C         139.9301  144.1754  163.5687 C.3     1  UNL1        0.0092
      3 C         141.2393  143.7414  164.1585 C.3     1  UNL1        0.0036
      4 C         140.1998  143.2710  165.1322 C.3     1  UNL1        0.0174
      5 C         140.6127  142.5375  166.3738 C.3     1  UNL1        0.0720
      6 N         142.0650  142.2745  166.6416 N.3     1  UNL1       -0.2738
      7 C         143.1044  142.7450  165.6679 C.3     1  UNL1        0.0720
      8 C         142.6915  143.4784  164.4263 C.3     1  UNL1        0.0174
      9 C         141.9646  144.3448  162.9923 C.3     1  UNL1        0.0092
     10 N         142.0905  144.4465  157.1987 N.3     1  UNL1       -0.2711
     11 C         142.5034  143.7130  158.4403 C.3     1  UNL1        0.0939
     12 C         141.8874  144.0683  159.7611 C.3     1  UNL1        0.1107
     13 N         140.8586  145.1570  159.8402 N.am    1  UNL1       -0.2767
     14 C         140.2426  145.5122  161.1609 C.2     1  UNL1        0.2252
     15 O         139.2137  146.6009  161.2400 O.2     1  UNL1       -0.2749
     16 C         140.4457  145.8904  158.5985 C.3     1  UNL1        0.1107
     17 C         141.0617  145.5352  157.2778 C.3     1  UNL1        0.0939
     18 C         142.5068  144.9876  154.6919 C.3     1  UNL1        0.0173
     19 C         142.7065  144.0912  155.8780 C.3     1  UNL1        0.0577
     20 C         143.5222  142.8396  155.7433 C.3     1  UNL1        0.0173
     21 C         142.4778  141.5410  167.8833 C.3     1  UNL1        0.0625
     22 C         143.2351  142.2582  168.9612 C.3     1  UNL1        0.0481
     23 C         143.6479  141.5247  170.2029 C.3     1  UNL1        0.1435
     24 O         143.3034  140.0740  170.3665 O.3     1  UNL1       -0.3537
     25 C         142.5460  139.3568  169.2885 C.3     1  UNL1        0.1435
     26 C         142.1332  140.0903  168.0469 C.3     1  UNL1        0.0481
@<TRIPOS>BOND
     1    18    19    1
     2    19    20    1
     3    19    10    1
     4    10    11    1
     5    11    12    1
     6    12    13    1
     7    13    14   am
     8    14    15    2
     9    14     1    1
    10     1     2    1
    11     2     3    1
    12     3     4    1
    13     4     5    1
    14     5     6    1
    15     6    21    1
    16    21    22    1
    17    22    23    1
    18    23    24    1
    19    24    25    1
    20    25    26    1
    21     6     7    1
    22     7     8    1
    23     3     9    1
    24    13    16    1
    25    16    17    1
    26    17    10    1
    27     9     1    1
    28     8     3    1
    29    26    21    1
@<TRIPOS>MOLECULE
*****
 26 29 0 0 0
SMALL
GASTEIGER

@<TRIPOS>ATOM
      1 C         139.9205  138.6534  164.2983 C.3     1  UNL1        0.0767
      2 C         141.1412  138.0046  163.7161 C.3     1  UNL1        0.0092
      3 C         140.7658  138.5173  162.3573 C.3     1  UNL1        0.0036
      4 C         142.0421  137.7578  162.1467 C.3     1  UNL1        0.0174
      5 C         142.6397  137.6616  160.7744 C.3     1  UNL1        0.0720
      6 N         141.9612  138.3248  159.6126 N.3     1  UNL1       -0.2738
      7 C         140.6849  139.0842  159.8232 C.3     1  UNL1        0.0720
      8 C         140.0872  139.1804  161.1956 C.3     1  UNL1        0.0174
      9 C         139.5451  139.1661  162.9395 C.3     1  UNL1        0.0092
     10 N         140.8136  141.8601  168.5608 N.3     1  UNL1       -0.2711
     11 C         141.4112  141.7639  167.1884 C.3     1  UNL1        0.0939
     12 C         140.9143  140.7270  166.2250 C.3     1  UNL1        0.1107
     13 N         139.8198  139.7865  166.6340 N.am    1  UNL1       -0.2767
     14 C         139.3228  138.7497  165.6707 C.2     1  UNL1        0.2252
     15 O         138.2283  137.8091  166.0797 O.2     1  UNL1       -0.2749
     16 C         139.2221  139.8828  168.0065 C.3     1  UNL1        0.1107
     17 C         139.7190  140.9196  168.9699 C.3     1  UNL1        0.0939
     18 C         142.7153  142.8248  170.0450 C.3     1  UNL1        0.0173
     19 C         141.3105  142.8969  169.5242 C.3     1  UNL1        0.0577
     20 C         140.4025  144.0059  169.9668 C.3     1  UNL1        0.0173
     21 C         142.5589  138.2285  158.2401 C.3     1  UNL1        0.0625
     22 C         143.1152  139.4533  157.5768 C.3     1  UNL1        0.0481
     23 C         143.7129  139.3571  156.2043 C.3     1  UNL1        0.1435
     24 O         143.7543  138.0358  155.4953 O.3     1  UNL1       -0.3537
     25 C         143.1980  136.8109  156.1588 C.3     1  UNL1        0.1435
     26 C         142.6003  136.9072  157.5312 C.3     1  UNL1        0.0481
@<TRIPOS>BOND
     1    18    19    1
     2    19    20    1
     3    19    10    1
     4    10    11    1
     5    11    12    1
     6    12    13    1
     7    13    14   am
     8    14    15    2
     9    14     1    1
    10     1     2    1
    11     2     3    1
    12     3     4    1
    13     4     5    1
    14     5     6    1
    15     6    21    1
    16    21    22    1
    17    22    23    1
    18    23    24    1
    19    24    25    1
    20    25    26    1
    21     6     7    1
    22     7     8    1
    23     3     9    1
    24    13    16    1
    25    16    17    1
    26    17    10    1
    27     9     1    1
    28     8     3    1
    29    26    21    1
@<TRIPOS>MOLECULE
*****
 26 29 0 0 0
SMALL
GASTEIGER

@<TRIPOS>ATOM
      1 C         142.6856  142.3631  162.3895 C.3     1  UNL1        0.0767
      2 C         141.4503  142.5888  163.2100 C.3     1  UNL1        0.0092
      3 C         142.2328  142.3218  164.4616 C.3     1  UNL1        0.0036
      4 C         140.8371  142.6090  164.9302 C.3     1  UNL1        0.0174
      5 C         140.5170  142.5798  166.3953 C.3     1  UNL1        0.0720
      6 N         141.5926  142.2636  167.3918 N.3     1  UNL1       -0.2738
      7 C         142.9882  141.9764  166.9233 C.3     1  UNL1        0.0720
      8 C         143.3083  142.0056  165.4582 C.3     1  UNL1        0.0174
      9 C         143.4680  142.0961  163.6411 C.3     1  UNL1        0.0092
     10 N         141.9889  138.8598  158.3285 N.3     1  UNL1       -0.2711
     11 C         141.6688  138.8307  159.7936 C.3     1  UNL1        0.0939
     12 C         142.0077  140.0082  160.6590 C.3     1  UNL1        0.1107
     13 N         142.6668  141.2147  160.0591 N.am    1  UNL1       -0.2767
     14 C         143.0057  142.3922  160.9244 C.2     1  UNL1        0.2252
     15 O         143.6647  143.5988  160.3245 O.2     1  UNL1       -0.2749
     16 C         142.9869  141.2438  158.5939 C.3     1  UNL1        0.1107
     17 C         142.6480  140.0664  157.7286 C.3     1  UNL1        0.0939
     18 C         142.7037  136.6679  157.1309 C.3     1  UNL1        0.0173
     19 C         141.6500  137.6824  157.4633 C.3     1  UNL1        0.0577
     20 C         140.2573  137.5194  156.9303 C.3     1  UNL1        0.0173
     21 C         141.2724  142.2344  168.8570 C.3     1  UNL1        0.0625
     22 C         142.0416  141.3313  169.7750 C.3     1  UNL1        0.0481
     23 C         141.7214  141.3022  171.2402 C.3     1  UNL1        0.1435
     24 O         140.6320  142.1762  171.7873 O.3     1  UNL1       -0.3537
     25 C         139.8628  143.0793  170.8693 C.3     1  UNL1        0.1435
     26 C         140.1830  143.1084  169.4042 C.3     1  UNL1        0.0481
@<TRIPOS>BOND
     1    18    19    1
     2    19    20    1
     3    19    10    1
     4    10    11    1
     5    11    12    1
     6    12    13    1
     7    13    14   am
     8    14    15    2
     9    14     1    1
    10     1     2    1
    11     2     3    1
    12     3     4    1
    13     4     5    1
    14     5     6    1
    15     6    21    1
    16    21    22    1
    17    22    23    1
    18    23    24    1
    19    24    25    1
    20    25    26    1
    21     6     7    1
    22     7     8    1
    23     3     9    1
    24    13    16    1
    25    16    17    1
    26    17    10    1
    27     9     1    1
    28     8     3    1
    29    26    21    1
@<TRIPOS>MOLECULE
*****
 26 29 0 0 0
SMALL
GASTEIGER

@<TRIPOS>ATOM
      1 C         143.4869  141.1429  161.4187 C.3     1  UNL1        0.0767
      2 C         142.2607  141.5217  162.1952 C.3     1  UNL1        0.0092
      3 C         142.8030  140.8098  163.3990 C.3     1  UNL1        0.0036
      4 C         141.4783  141.3600  163.8375 C.3     1  UNL1        0.0174
      5 C         140.9947  141.1245  165.2377 C.3     1  UNL1        0.0720
      6 N         141.8360  140.3388  166.1995 N.3     1  UNL1       -0.2738
      7 C         143.1607  139.7887  165.7611 C.3     1  UNL1        0.0720
      8 C         143.6442  140.0242  164.3608 C.3     1  UNL1        0.0174
      9 C         144.0292  140.4310  162.6225 C.3     1  UNL1        0.0092
     10 N         143.2992  138.2533  156.8509 N.3     1  UNL1       -0.2711
     11 C         142.8157  138.0178  158.2511 C.3     1  UNL1        0.0939
     12 C         143.0394  139.0595  159.3071 C.3     1  UNL1        0.1107
     13 N         143.7467  140.3367  158.9626 N.am    1  UNL1       -0.2767
     14 C         143.9704  141.3783  160.0185 C.2     1  UNL1        0.2252
     15 O         144.6777  142.6555  159.6740 O.2     1  UNL1       -0.2749
     16 C         144.2302  140.5721  157.5623 C.3     1  UNL1        0.1107
     17 C         144.0065  139.5305  156.5065 C.3     1  UNL1        0.0939
     18 C         144.1182  136.1632  155.5430 C.3     1  UNL1        0.0173
     19 C         143.0754  137.2116  155.7951 C.3     1  UNL1        0.0577
     20 C         141.8089  137.2183  154.9913 C.3     1  UNL1        0.0173
     21 C         141.3524  140.1034  167.5998 C.3     1  UNL1        0.0625
     22 C         139.9173  140.3621  167.9511 C.3     1  UNL1        0.0481
     23 C         139.4337  140.1266  169.3514 C.3     1  UNL1        0.1435
     24 O         140.3853  139.6324  170.4003 O.3     1  UNL1       -0.3537
     25 C         141.8204  139.3737  170.0490 C.3     1  UNL1        0.1435
     26 C         142.3040  139.6092  168.6487 C.3     1  UNL1        0.0481
@<TRIPOS>BOND
     1    18    19    1
     2    19    20    1
     3    19    10    1
     4    10    11    1
     5    11    12    1
     6    12    13    1
     7    13    14   am
     8    14    15    2
     9    14     1    1
    10     1     2    1
    11     2     3    1
    12     3     4    1
    13     4     5    1
    14     5     6    1
    15     6    21    1
    16    21    22    1
    17    22    23    1
    18    23    24    1
    19    24    25    1
    20    25    26    1
    21     6     7    1
    22     7     8    1
    23     3     9    1
    24    13    16    1
    25    16    17    1
    26    17    10    1
    27     9     1    1
    28     8     3    1
    29    26    21    1
@<TRIPOS>MOLECULE
*****
 26 29 0 0 0
SMALL
GASTEIGER

@<TRIPOS>ATOM
      1 C         139.1558  139.8249  160.9228 C.3     1  UNL1        0.0767
      2 C         139.8066  140.9381  161.6891 C.3     1  UNL1        0.0092
      3 C         139.4183  140.2775  162.9787 C.3     1  UNL1        0.0036
      4 C         140.1474  141.5238  163.3851 C.3     1  UNL1        0.0174
      5 C         140.3331  141.8438  164.8387 C.3     1  UNL1        0.0720
      6 N         139.7895  140.9176  165.8859 N.3     1  UNL1       -0.2738
      7 C         139.0604  139.6714  165.4795 C.3     1  UNL1        0.0720
      8 C         138.8748  139.3513  164.0259 C.3     1  UNL1        0.0174
      9 C         138.7675  139.1643  162.2124 C.3     1  UNL1        0.0092
     10 N         142.1942  137.3174  157.2174 N.3     1  UNL1       -0.2711
     11 C         142.3798  137.6375  158.6710 C.3     1  UNL1        0.0939
     12 C         141.3051  138.3666  159.4217 C.3     1  UNL1        0.1107
     13 N         140.0448  138.7757  158.7186 N.am    1  UNL1       -0.2767
     14 C         138.9702  139.5049  159.4692 C.2     1  UNL1        0.2252
     15 O         137.7099  139.9140  158.7661 O.2     1  UNL1       -0.2749
     16 C         139.8592  138.4557  157.2649 C.3     1  UNL1        0.1107
     17 C         140.9339  137.7265  156.5143 C.3     1  UNL1        0.0939
     18 C         144.0976  137.3145  155.4491 C.3     1  UNL1        0.0173
     19 C         143.2689  136.5883  156.4669 C.3     1  UNL1        0.0577
     20 C         143.5149  135.1329  156.7340 C.3     1  UNL1        0.0173
     21 C         139.9752  141.2377  167.3396 C.3     1  UNL1        0.0625
     22 C         139.5870  140.2336  168.3842 C.3     1  UNL1        0.0481
     23 C         139.7727  140.5537  169.8379 C.3     1  UNL1        0.1435
     24 O         140.3465  141.8779  170.2469 O.3     1  UNL1       -0.3537
     25 C         140.7346  142.8820  169.2023 C.3     1  UNL1        0.1435
     26 C         140.5490  142.5619  167.7487 C.3     1  UNL1        0.0481
@<TRIPOS>BOND
     1    18    19    1
     2    19    20    1
     3    19    10    1
     4    10    11    1
     5    11    12    1
     6    12    13    1
     7    13    14   am
     8    14    15    2
     9    14     1    1
    10     1     2    1
    11     2     3    1
    12     3     4    1
    13     4     5    1
    14     5     6    1
    15     6    21    1
    16    21    22    1
    17    22    23    1
    18    23    24    1
    19    24    25    1
    20    25    26    1
    21     6     7    1
    22     7     8    1
    23     3     9    1
    24    13    16    1
    25    16    17    1
    26    17    10    1
    27     9     1    1
    28     8     3    1
    29    26    21    1
@<TRIPOS>MOLECULE
*****
 26 29 0 0 0
SMALL
GASTEIGER

@<TRIPOS>ATOM
      1 C         140.8009  144.0284  161.5812 C.3     1  UNL1        0.0767
      2 C         141.3996  142.9408  162.4230 C.3     1  UNL1        0.0092
      3 C         140.6281  143.4351  163.6106 C.3     1  UNL1        0.0036
      4 C         141.4062  142.2566  164.1163 C.3     1  UNL1        0.0174
      5 C         141.2840  141.8371  165.5512 C.3     1  UNL1        0.0720
      6 N         140.3838  142.5961  166.4805 N.3     1  UNL1       -0.2738
      7 C         139.6058  143.7746  165.9748 C.3     1  UNL1        0.0720
      8 C         139.7279  144.1941  164.5399 C.3     1  UNL1        0.0174
      9 C         140.0294  144.5227  162.7689 C.3     1  UNL1        0.0092
     10 N         138.1816  142.6826  157.0450 N.3     1  UNL1       -0.2711
     11 C         138.0594  142.2631  158.4799 C.3     1  UNL1        0.0939
     12 C         138.9732  142.8516  159.5137 C.3     1  UNL1        0.1107
     13 N         140.0092  143.8595  159.1125 N.am    1  UNL1       -0.2767
     14 C         140.9230  144.4479  160.1463 C.2     1  UNL1        0.2252
     15 O         141.9590  145.4558  159.7451 O.2     1  UNL1       -0.2749
     16 C         140.1313  144.2789  157.6775 C.3     1  UNL1        0.1107
     17 C         139.2175  143.6905  156.6438 C.3     1  UNL1        0.0939
     18 C         136.3911  142.9905  155.1877 C.3     1  UNL1        0.0173
     19 C         137.2677  142.0942  156.0112 C.3     1  UNL1        0.0577
     20 C         137.2306  140.6094  155.8009 C.3     1  UNL1        0.0173
     21 C         140.2617  142.1766  167.9155 C.3     1  UNL1        0.0625
     22 C         140.4087  143.1927  169.0091 C.3     1  UNL1        0.0481
     23 C         140.2865  142.7731  170.4441 C.3     1  UNL1        0.1435
     24 O         140.0175  141.3375  170.7854 O.3     1  UNL1       -0.3537
     25 C         139.8705  140.3214  169.6917 C.3     1  UNL1        0.1435
     26 C         139.9926  140.7409  168.2568 C.3     1  UNL1        0.0481
@<TRIPOS>BOND
     1    18    19    1
     2    19    20    1
     3    19    10    1
     4    10    11    1
     5    11    12    1
     6    12    13    1
     7    13    14   am
     8    14    15    2
     9    14     1    1
    10     1     2    1
    11     2     3    1
    12     3     4    1
    13     4     5    1
    14     5     6    1
    15     6    21    1
    16    21    22    1
    17    22    23    1
    18    23    24    1
    19    24    25    1
    20    25    26    1
    21     6     7    1
    22     7     8    1
    23     3     9    1
    24    13    16    1
    25    16    17    1
    26    17    10    1
    27     9     1    1
    28     8     3    1
    29    26    21    1
@<TRIPOS>MOLECULE
*****
 26 29 0 0 0
SMALL
GASTEIGER

@<TRIPOS>ATOM
      1 C         143.2054  140.6539  162.6516 C.3     1  UNL1        0.0767
      2 C         142.1057  140.1414  163.5336 C.3     1  UNL1        0.0092
      3 C         142.6143  140.9901  164.6611 C.3     1  UNL1        0.0036
      4 C         141.4205  140.2753  165.2212 C.3     1  UNL1        0.0174
      5 C         141.0026  140.5130  166.6421 C.3     1  UNL1        0.0720
      6 N         141.7785  141.4654  167.5027 N.3     1  UNL1       -0.2738
      7 C         142.9724  142.1802  166.9426 C.3     1  UNL1        0.0720
      8 C         143.3902  141.9425  165.5217 C.3     1  UNL1        0.0174
      9 C         143.7140  141.5027  163.7790 C.3     1  UNL1        0.0092
     10 N         142.7419  143.5054  158.0795 N.3     1  UNL1       -0.2711
     11 C         142.3240  143.7431  159.5003 C.3     1  UNL1        0.0939
     12 C         142.6178  142.7133  160.5508 C.3     1  UNL1        0.1107
     13 N         143.3295  141.4460  160.1803 N.am    1  UNL1       -0.2767
     14 C         143.6233  140.4163  161.2307 C.2     1  UNL1        0.2252
     15 O         144.3349  139.1489  160.8603 O.2     1  UNL1       -0.2749
     16 C         143.7473  141.2083  158.7594 C.3     1  UNL1        0.1107
     17 C         143.4536  142.2380  157.7090 C.3     1  UNL1        0.0939
     18 C         142.5277  144.1688  155.5767 C.3     1  UNL1        0.0173
     19 C         142.4481  144.5351  157.0291 C.3     1  UNL1        0.0577
     20 C         142.0746  145.9312  157.4311 C.3     1  UNL1        0.0173
     21 C         141.3606  141.7031  168.9236 C.3     1  UNL1        0.0625
     22 C         140.3644  142.7782  169.2426 C.3     1  UNL1        0.0481
     23 C         139.9464  143.0158  170.6635 C.3     1  UNL1        0.1435
     24 O         140.5247  142.1784  171.7654 O.3     1  UNL1       -0.3537
     25 C         141.5210  141.1033  171.4464 C.3     1  UNL1        0.1435
     26 C         141.9389  140.8657  170.0256 C.3     1  UNL1        0.0481
@<TRIPOS>BOND
     1    18    19    1
     2    19    20    1
     3    19    10    1
     4    10    11    1
     5    11    12    1
     6    12    13    1
     7    13    14   am
     8    14    15    2
     9    14     1    1
    10     1     2    1
    11     2     3    1
    12     3     4    1
    13     4     5    1
    14     5     6    1
    15     6    21    1
    16    21    22    1
    17    22    23    1
    18    23    24    1
    19    24    25    1
    20    25    26    1
    21     6     7    1
    22     7     8    1
    23     3     9    1
    24    13    16    1
    25    16    17    1
    26    17    10    1
    27     9     1    1
    28     8     3    1
    29    26    21    1
