@<TRIPOS>MOLECULE
*****
 34 39 0 0 0
SMALL
GASTEIGER

@<TRIPOS>ATOM
      1 C         142.5828  137.8737  157.3453 C.ar    1  UNL1        0.1028
      2 C         142.7708  138.4832  155.9878 C.ar    1  UNL1        0.0131
      3 C         142.4628  139.9347  155.7680 C.ar    1  UNL1       -0.0015
      4 C         141.9508  141.0498  156.6970 C.ar    1  UNL1        0.0035
      5 C         142.1155  139.7185  157.3682 C.ar    1  UNL1        0.0358
      6 C         142.0867  138.7157  158.4833 C.ar    1  UNL1        0.1545
      7 O         141.8687  138.1941  159.8726 O.3     1  UNL1       -0.4528
      8 C         141.4947  138.2331  161.3248 C.ar    1  UNL1        0.1453
      9 C         141.4236  137.1611  162.6776 C.ar    1  UNL1        0.0406
     10 C         141.0091  137.3909  164.1008 C.ar    1  UNL1        0.0398
     11 C         140.5583  138.7525  164.5401 C.ar    1  UNL1        0.1363
     12 C         140.5216  139.8848  163.5570 C.ar    1  UNL1        0.0329
     13 C         141.0217  138.8268  162.6185 C.ar    1  UNL1        0.0378
     14 C         140.0707  141.2460  163.9972 C.3     1  UNL1        0.1046
     15 C         139.6564  141.4749  165.4206 C.3     1  UNL1        0.0718
     16 C         139.6931  140.3426  166.4037 C.3     1  UNL1        0.2075
     17 O         140.1441  138.9814  165.9634 O.3     1  UNL1       -0.4757
     18 N         139.7375  142.7032  163.8723 N.am    1  UNL1       -0.2761
     19 C         139.2443  143.8717  164.6731 C.3     1  UNL1        0.0956
     20 C         139.1750  145.0616  163.7625 C.3     1  UNL1        0.0466
     21 C         139.6016  145.0373  162.0859 C.3     1  UNL1        0.1337
     22 N         139.8196  145.5589  160.6965 N.3     1  UNL1       -0.2863
     23 C         140.1936  145.5198  159.2444 C.3     1  UNL1        0.1151
     24 C         140.6667  144.9262  157.9506 C.ar    1  UNL1        0.0739
     25 C         140.5396  146.2068  157.1801 C.ar    1  UNL1        0.1147
     26 N         140.9611  145.9403  155.7654 N.ar    1  UNL1       -0.2226
     27 C         141.3487  144.4949  155.6617 C.ar    1  UNL1        0.1786
     28 N         141.1667  143.8682  157.0122 N.ar    1  UNL1       -0.3070
     29 C         141.6177  142.5069  156.5720 C.3     1  UNL1        0.1341
     30 C         139.5728  144.0345  163.2011 C.2     1  UNL1        0.2401
     31 O         139.3259  144.3157  163.9050 O.2     1  UNL1       -0.2734
     32 H         140.4477  146.3193  160.9565 H       1  UNL1        0.1240
     33 N         143.1988  134.9707  157.7848 N.1     1  UNL1       -0.1907
     34 C         142.8908  136.4222  157.5650 C.1     1  UNL1        0.1035
@<TRIPOS>BOND
     1    33    34    3
     2    34     1    1
     3     1     2   ar
     4     2     3   ar
     5     3     4   ar
     6     4     5   ar
     7     5     6   ar
     8     6     7    1
     9     7     8    1
    10     8     9   ar
    11     9    10   ar
    12    10    11   ar
    13    11    12   ar
    14    12    13   ar
    15    12    14    1
    16    14    15    1
    17    15    16    1
    18    16    17    1
    19    14    18    1
    20    18    19    1
    21    19    20    1
    22    21    20    1
    23    21    22    1
    24    22    23    1
    25    23    24    1
    26    24    25   ar
    27    25    26   ar
    28    26    27   ar
    29    27    28   ar
    30    28    29    1
    31    21    30    1
    32    30    31    2
    33     6     1   ar
    34    13     8   ar
    35    30    18   am
    36    29     4    1
    37    17    11    1
    38    28    24   ar
    39    22    32    1
@<TRIPOS>MOLECULE
*****
 34 39 0 0 0
SMALL
GASTEIGER

@<TRIPOS>ATOM
      1 C         139.6016  146.9838  156.3136 C.ar    1  UNL1        0.1028
      2 C         139.7634  146.8422  154.8292 C.ar    1  UNL1        0.0131
      3 C         140.4842  145.6548  154.2631 C.ar    1  UNL1       -0.0015
      4 C         141.1601  144.4329  154.9099 C.ar    1  UNL1        0.0035
      5 C         140.5513  145.3894  155.8919 C.ar    1  UNL1        0.0358
      6 C         140.1606  145.9380  157.2322 C.ar    1  UNL1        0.1545
      7 O         140.0474  145.9949  158.7267 O.3     1  UNL1       -0.4528
      8 C         140.2291  145.5516  160.1483 C.ar    1  UNL1        0.1453
      9 C         139.8293  146.0926  161.7394 C.ar    1  UNL1        0.0406
     10 C         140.1058  145.4932  163.0863 C.ar    1  UNL1        0.0398
     11 C         140.8537  144.1973  163.1913 C.ar    1  UNL1        0.1363
     12 C         141.3257  143.5000  161.9499 C.ar    1  UNL1        0.0329
     13 C         140.6780  144.6755  161.2800 C.ar    1  UNL1        0.0378
     14 C         142.0736  142.2040  162.0559 C.3     1  UNL1        0.1046
     15 C         142.3496  141.6054  163.4033 C.3     1  UNL1        0.0718
     16 C         141.8776  142.3027  164.6446 C.3     1  UNL1        0.2075
     17 O         141.1297  143.5986  164.5387 O.3     1  UNL1       -0.4757
     18 N         142.8079  140.9850  161.5818 N.am    1  UNL1       -0.2761
     19 C         143.4970  139.7532  162.0895 C.3     1  UNL1        0.0956
     20 C         144.0066  138.9859  160.9056 C.3     1  UNL1        0.0466
     21 C         143.8075  139.4799  159.2596 C.3     1  UNL1        0.1337
     22 N         143.9206  139.4229  157.7649 N.3     1  UNL1       -0.2863
     23 C         143.7389  139.8663  156.3435 C.3     1  UNL1        0.1151
     24 C         143.2900  140.7424  155.2116 C.ar    1  UNL1        0.0739
     25 C         143.8618  139.8574  154.1440 C.ar    1  UNL1        0.1147
     26 N         143.5675  140.4860  152.8142 N.ar    1  UNL1       -0.2226
     27 C         142.8138  141.7594  153.0601 C.ar    1  UNL1        0.1786
     28 N         142.6423  141.9179  154.5418 N.ar    1  UNL1       -0.3070
     29 C         141.8944  143.2138  154.4358 C.3     1  UNL1        0.1341
     30 C         143.4167  140.0284  160.5999 C.2     1  UNL1        0.2401
     31 O         143.6395  139.5877  161.2257 O.2     1  UNL1       -0.2734
     32 H         143.4981  138.5014  157.6527 H       1  UNL1        0.1240
     33 N         138.1600  149.3587  157.4457 N.1     1  UNL1       -0.1907
     34 C         138.8807  148.1713  156.8797 C.1     1  UNL1        0.1035
@<TRIPOS>BOND
     1    33    34    3
     2    34     1    1
     3     1     2   ar
     4     2     3   ar
     5     3     4   ar
     6     4     5   ar
     7     5     6   ar
     8     6     7    1
     9     7     8    1
    10     8     9   ar
    11     9    10   ar
    12    10    11   ar
    13    11    12   ar
    14    12    13   ar
    15    12    14    1
    16    14    15    1
    17    15    16    1
    18    16    17    1
    19    14    18    1
    20    18    19    1
    21    19    20    1
    22    21    20    1
    23    21    22    1
    24    22    23    1
    25    23    24    1
    26    24    25   ar
    27    25    26   ar
    28    26    27   ar
    29    27    28   ar
    30    28    29    1
    31    21    30    1
    32    30    31    2
    33     6     1   ar
    34    13     8   ar
    35    30    18   am
    36    29     4    1
    37    17    11    1
    38    28    24   ar
    39    22    32    1
@<TRIPOS>MOLECULE
*****
 34 39 0 0 0
SMALL
GASTEIGER

@<TRIPOS>ATOM
      1 C         140.2062  144.6051  156.4627 C.ar    1  UNL1        0.1028
      2 C         140.5075  143.9530  155.1460 C.ar    1  UNL1        0.0131
      3 C         141.0066  142.5390  155.1060 C.ar    1  UNL1       -0.0015
      4 C         141.3105  141.5034  156.2032 C.ar    1  UNL1        0.0035
      5 C         140.8186  142.8219  156.7223 C.ar    1  UNL1        0.0358
      6 C         140.4040  143.8433  157.7397 C.ar    1  UNL1        0.1545
      7 O         140.1296  144.4118  159.1003 O.3     1  UNL1       -0.4528
      8 C         140.0373  144.4411  160.5972 C.ar    1  UNL1        0.1453
      9 C         139.5824  145.5403  161.8499 C.ar    1  UNL1        0.0406
     10 C         139.5557  145.3837  163.3414 C.ar    1  UNL1        0.0398
     11 C         139.9771  144.0871  163.9670 C.ar    1  UNL1        0.1363
     12 C         140.4253  142.9466  163.1020 C.ar    1  UNL1        0.0329
     13 C         140.1411  143.9265  162.0023 C.ar    1  UNL1        0.0378
     14 C         140.8465  141.6504  163.7285 C.3     1  UNL1        0.1046
     15 C         140.8195  141.4948  165.2202 C.3     1  UNL1        0.0718
     16 C         140.3713  142.6352  166.0852 C.3     1  UNL1        0.2075
     17 O         139.9501  143.9314  165.4587 O.3     1  UNL1       -0.4757
     18 N         141.3406  140.2354  163.7866 N.am    1  UNL1       -0.2761
     19 C         141.6715  139.1422  164.7589 C.3     1  UNL1        0.0956
     20 C         142.1337  137.9494  163.9757 C.3     1  UNL1        0.0466
     21 C         142.2471  137.8955  162.2501 C.3     1  UNL1        0.1337
     22 N         142.5215  137.3269  160.8894 N.3     1  UNL1       -0.2863
     23 C         142.6138  137.2977  159.3925 C.3     1  UNL1        0.1151
     24 C         142.5099  137.8122  157.9873 C.ar    1  UNL1        0.0739
     25 C         142.9921  136.5381  157.3596 C.ar    1  UNL1        0.1147
     26 N         143.0060  136.7306  155.8721 N.ar    1  UNL1       -0.2226
     27 C         142.5324  138.1236  155.5805 C.ar    1  UNL1        0.1786
     28 N         142.2258  138.7921  156.8878 N.ar    1  UNL1       -0.3070
     29 C         141.8046  140.0883  156.2613 C.3     1  UNL1        0.1341
     30 C         141.8325  138.9168  163.2675 C.2     1  UNL1        0.2401
     31 O         141.8750  138.6773  164.0266 O.2     1  UNL1       -0.2734
     32 H         141.9200  136.5085  160.9834 H       1  UNL1        0.1240
     33 N         139.2080  147.4330  156.5427 N.1     1  UNL1       -0.1907
     34 C         139.7071  146.0191  156.5027 C.1     1  UNL1        0.1035
@<TRIPOS>BOND
     1    33    34    3
     2    34     1    1
     3     1     2   ar
     4     2     3   ar
     5     3     4   ar
     6     4     5   ar
     7     5     6   ar
     8     6     7    1
     9     7     8    1
    10     8     9   ar
    11     9    10   ar
    12    10    11   ar
    13    11    12   ar
    14    12    13   ar
    15    12    14    1
    16    14    15    1
    17    15    16    1
    18    16    17    1
    19    14    18    1
    20    18    19    1
    21    19    20    1
    22    21    20    1
    23    21    22    1
    24    22    23    1
    25    23    24    1
    26    24    25   ar
    27    25    26   ar
    28    26    27   ar
    29    27    28   ar
    30    28    29    1
    31    21    30    1
    32    30    31    2
    33     6     1   ar
    34    13     8   ar
    35    30    18   am
    36    29     4    1
    37    17    11    1
    38    28    24   ar
    39    22    32    1
@<TRIPOS>MOLECULE
*****
 34 39 0 0 0
SMALL
GASTEIGER

@<TRIPOS>ATOM
      1 C         139.7243  145.4550  155.8467 C.ar    1  UNL1        0.1028
      2 C         139.7485  144.9651  154.4292 C.ar    1  UNL1        0.0131
      3 C         140.2464  143.5840  154.1213 C.ar    1  UNL1       -0.0015
      4 C         140.7894  142.4450  155.0023 C.ar    1  UNL1        0.0035
      5 C         140.4014  143.6783  155.7629 C.ar    1  UNL1        0.0358
      6 C         140.1981  144.5639  156.9564 C.ar    1  UNL1        0.1545
      7 O         140.2107  144.9669  158.4011 O.3     1  UNL1       -0.4528
      8 C         140.4372  144.8261  159.8773 C.ar    1  UNL1        0.1453
      9 C         140.2435  145.7614  161.3167 C.ar    1  UNL1        0.0406
     10 C         140.5354  145.4390  162.7523 C.ar    1  UNL1        0.0398
     11 C         141.0968  144.0977  163.1205 C.ar    1  UNL1        0.1363
     12 C         141.3667  143.0781  162.0540 C.ar    1  UNL1        0.0329
     13 C         140.8431  144.1628  161.1599 C.ar    1  UNL1        0.0378
     14 C         141.9281  141.7370  162.4232 C.3     1  UNL1        0.1046
     15 C         142.2198  141.4156  163.8591 C.3     1  UNL1        0.0718
     16 C         141.9499  142.4351  164.9256 C.3     1  UNL1        0.2075
     17 O         141.3885  143.7762  164.5564 O.3     1  UNL1       -0.4757
     18 N         142.4420  140.3438  162.2114 N.am    1  UNL1       -0.2761
     19 C         142.9858  139.1625  162.9589 C.3     1  UNL1        0.0956
     20 C         143.2873  138.0823  161.9628 C.3     1  UNL1        0.0466
     21 C         143.0334  138.2249  160.2574 C.3     1  UNL1        0.1337
     22 N         143.0208  137.8219  158.8126 N.3     1  UNL1       -0.2863
     23 C         142.7943  137.9627  157.3365 C.3     1  UNL1        0.1151
     24 C         142.3883  138.6260  156.0538 C.ar    1  UNL1        0.0739
     25 C         142.7434  137.4485  155.1950 C.ar    1  UNL1        0.1147
     26 N         142.4393  137.8056  153.7702 N.ar    1  UNL1       -0.2226
     27 C         141.8963  139.2037  153.7484 C.ar    1  UNL1        0.1786
     28 N         141.8648  139.7107  155.1598 N.ar    1  UNL1       -0.3070
     29 C         141.3033  141.0518  154.7906 C.3     1  UNL1        0.1341
     30 C         142.8301  139.1105  161.4509 C.2     1  UNL1        0.2401
     31 O         143.0357  138.7899  162.1512 O.2     1  UNL1       -0.2734
     32 H         142.4637  136.9761  158.9341 H       1  UNL1        0.1240
     33 N         138.7283  148.2170  156.4624 N.1     1  UNL1       -0.1907
     34 C         139.2263  146.8360  156.1546 C.1     1  UNL1        0.1035
@<TRIPOS>BOND
     1    33    34    3
     2    34     1    1
     3     1     2   ar
     4     2     3   ar
     5     3     4   ar
     6     4     5   ar
     7     5     6   ar
     8     6     7    1
     9     7     8    1
    10     8     9   ar
    11     9    10   ar
    12    10    11   ar
    13    11    12   ar
    14    12    13   ar
    15    12    14    1
    16    14    15    1
    17    15    16    1
    18    16    17    1
    19    14    18    1
    20    18    19    1
    21    19    20    1
    22    21    20    1
    23    21    22    1
    24    22    23    1
    25    23    24    1
    26    24    25   ar
    27    25    26   ar
    28    26    27   ar
    29    27    28   ar
    30    28    29    1
    31    21    30    1
    32    30    31    2
    33     6     1   ar
    34    13     8   ar
    35    30    18   am
    36    29     4    1
    37    17    11    1
    38    28    24   ar
    39    22    32    1
@<TRIPOS>MOLECULE
*****
 34 39 0 0 0
SMALL
GASTEIGER

@<TRIPOS>ATOM
      1 C         135.4165  140.8271  156.2856 C.ar    1  UNL1        0.1028
      2 C         135.2743  141.4701  154.9379 C.ar    1  UNL1        0.0131
      3 C         136.4279  142.2182  154.3383 C.ar    1  UNL1       -0.0015
      4 C         137.8578  142.5076  154.8284 C.ar    1  UNL1        0.0035
      5 C         137.0323  141.6994  155.7851 C.ar    1  UNL1        0.0358
      6 C         136.7124  140.9322  157.0338 C.ar    1  UNL1        0.1545
      7 O         136.9468  140.3229  158.3842 O.3     1  UNL1       -0.4528
      8 C         137.6999  139.9641  159.6309 C.ar    1  UNL1        0.1453
      9 C         137.4375  139.1022  161.1049 C.ar    1  UNL1        0.0406
     10 C         138.3422  138.8418  162.2726 C.ar    1  UNL1        0.0398
     11 C         139.7439  139.3758  162.2691 C.ar    1  UNL1        0.1363
     12 C         140.2418  140.1703  161.0984 C.ar    1  UNL1        0.0329
     13 C         138.8569  139.9105  160.5839 C.ar    1  UNL1        0.0378
     14 C         141.6437  140.7039  161.0958 C.3     1  UNL1        0.1046
     15 C         142.5477  140.4430  162.2640 C.3     1  UNL1        0.0718
     16 C         142.0498  139.6485  163.4348 C.3     1  UNL1        0.2075
     17 O         140.6479  139.1149  163.4374 O.3     1  UNL1       -0.4757
     18 N         142.8492  141.4301  160.5766 N.am    1  UNL1       -0.2761
     19 C         144.2621  141.7783  160.9406 C.3     1  UNL1        0.0956
     20 C         144.8460  142.5814  159.8164 C.3     1  UNL1        0.0466
     21 C         143.9946  143.0055  158.3712 C.3     1  UNL1        0.1337
     22 N         143.7601  143.6149  157.0207 N.3     1  UNL1       -0.2863
     23 C         143.0070  143.9736  155.7741 C.3     1  UNL1        0.1151
     24 C         141.8500  144.0272  154.8210 C.ar    1  UNL1        0.0739
     25 C         142.5822  144.8371  153.7924 C.ar    1  UNL1        0.1147
     26 N         141.6498  145.0779  152.6424 N.ar    1  UNL1       -0.2226
     27 C         140.3414  144.4168  152.9601 C.ar    1  UNL1        0.1786
     28 N         140.4651  143.7674  154.3066 N.ar    1  UNL1       -0.3070
     29 C         139.0632  143.2338  154.3092 C.3     1  UNL1        0.1341
     30 C         143.6747  142.2383  159.6199 C.2     1  UNL1        0.2401
     31 O         144.2678  142.1893  160.1502 O.2     1  UNL1       -0.2734
     32 H         144.5481  143.1660  156.5538 H       1  UNL1        0.1240
     33 N         133.1094  139.3310  157.4850 N.1     1  UNL1       -0.1907
     34 C         134.2629  140.0790  156.8853 C.1     1  UNL1        0.1035
@<TRIPOS>BOND
     1    33    34    3
     2    34     1    1
     3     1     2   ar
     4     2     3   ar
     5     3     4   ar
     6     4     5   ar
     7     5     6   ar
     8     6     7    1
     9     7     8    1
    10     8     9   ar
    11     9    10   ar
    12    10    11   ar
    13    11    12   ar
    14    12    13   ar
    15    12    14    1
    16    14    15    1
    17    15    16    1
    18    16    17    1
    19    14    18    1
    20    18    19    1
    21    19    20    1
    22    21    20    1
    23    21    22    1
    24    22    23    1
    25    23    24    1
    26    24    25   ar
    27    25    26   ar
    28    26    27   ar
    29    27    28   ar
    30    28    29    1
    31    21    30    1
    32    30    31    2
    33     6     1   ar
    34    13     8   ar
    35    30    18   am
    36    29     4    1
    37    17    11    1
    38    28    24   ar
    39    22    32    1
@<TRIPOS>MOLECULE
*****
 34 39 0 0 0
SMALL
GASTEIGER

@<TRIPOS>ATOM
      1 C         138.0442  140.8962  156.5838 C.ar    1  UNL1        0.1028
      2 C         138.6791  141.0058  155.2292 C.ar    1  UNL1        0.0131
      3 C         140.1441  141.3046  155.1094 C.ar    1  UNL1       -0.0015
      4 C         141.2525  141.5479  156.1490 C.ar    1  UNL1        0.0035
      5 C         139.9016  141.2797  156.7429 C.ar    1  UNL1        0.0358
      6 C         138.8744  141.0854  157.8187 C.ar    1  UNL1        0.1545
      7 O         138.3276  140.9945  159.2124 O.3     1  UNL1       -0.4528
      8 C         138.3443  141.0208  160.7122 C.ar    1  UNL1        0.1453
      9 C         137.2438  140.8151  162.0278 C.ar    1  UNL1        0.0406
     10 C         137.4532  140.8807  163.5117 C.ar    1  UNL1        0.0398
     11 C         138.8174  141.1690  164.0646 C.ar    1  UNL1        0.1363
     12 C         139.9729  141.3919  163.1345 C.ar    1  UNL1        0.0329
     13 C         138.9221  141.1603  162.0894 C.ar    1  UNL1        0.0378
     14 C         141.3368  141.6802  163.6884 C.3     1  UNL1        0.1046
     15 C         141.5451  141.7456  165.1724 C.3     1  UNL1        0.0718
     16 C         140.3897  141.5227  166.1025 C.3     1  UNL1        0.2075
     17 O         139.0258  141.2344  165.5486 O.3     1  UNL1       -0.4757
     18 N         142.8061  141.9813  163.6667 N.am    1  UNL1       -0.2761
     19 C         143.9703  142.2341  164.5781 C.3     1  UNL1        0.0956
     20 C         145.1827  142.4698  163.7269 C.3     1  UNL1        0.0466
     21 C         145.1842  142.4438  161.9970 C.3     1  UNL1        0.1337
     22 N         145.7310  142.5347  160.6031 N.3     1  UNL1       -0.2863
     23 C         145.7143  142.5084  159.1034 C.3     1  UNL1        0.1151
     24 C         145.1366  142.3688  157.7262 C.ar    1  UNL1        0.0739
     25 C         146.4381  142.6252  157.0261 C.ar    1  UNL1        0.1147
     26 N         146.1917  142.5521  155.5483 N.ar    1  UNL1       -0.2226
     27 C         144.7379  142.2505  155.3351 C.ar    1  UNL1        0.1786
     28 N         144.0857  142.1373  156.6811 N.ar    1  UNL1       -0.3070
     29 C         142.7218  141.8490  156.1273 C.3     1  UNL1        0.1341
     30 C         144.1571  142.2495  163.0728 C.2     1  UNL1        0.2401
     31 O         144.4294  142.3167  163.8190 O.2     1  UNL1       -0.2734
     32 H         146.4655  141.8369  160.7221 H       1  UNL1        0.1240
     33 N         135.1141  140.2987  156.8232 N.1     1  UNL1       -0.1907
     34 C         136.5791  140.5974  156.7035 C.1     1  UNL1        0.1035
@<TRIPOS>BOND
     1    33    34    3
     2    34     1    1
     3     1     2   ar
     4     2     3   ar
     5     3     4   ar
     6     4     5   ar
     7     5     6   ar
     8     6     7    1
     9     7     8    1
    10     8     9   ar
    11     9    10   ar
    12    10    11   ar
    13    11    12   ar
    14    12    13   ar
    15    12    14    1
    16    14    15    1
    17    15    16    1
    18    16    17    1
    19    14    18    1
    20    18    19    1
    21    19    20    1
    22    21    20    1
    23    21    22    1
    24    22    23    1
    25    23    24    1
    26    24    25   ar
    27    25    26   ar
    28    26    27   ar
    29    27    28   ar
    30    28    29    1
    31    21    30    1
    32    30    31    2
    33     6     1   ar
    34    13     8   ar
    35    30    18   am
    36    29     4    1
    37    17    11    1
    38    28    24   ar
    39    22    32    1
@<TRIPOS>MOLECULE
*****
 34 39 0 0 0
SMALL
GASTEIGER

@<TRIPOS>ATOM
      1 C         140.6088  145.4625  154.9550 C.ar    1  UNL1        0.1028
      2 C         140.1708  146.6558  155.7512 C.ar    1  UNL1        0.0131
      3 C         140.0733  146.5659  157.2454 C.ar    1  UNL1       -0.0015
      4 C         140.3430  145.4289  158.2467 C.ar    1  UNL1        0.0035
      5 C         140.5798  145.0543  156.8137 C.ar    1  UNL1        0.0358
      6 C         140.9494  144.1791  155.6529 C.ar    1  UNL1        0.1545
      7 O         141.3957  142.9365  154.9413 O.3     1  UNL1       -0.4528
      8 C         141.8507  141.5154  154.7869 C.ar    1  UNL1        0.1453
      9 C         142.2963  140.4235  153.5246 C.ar    1  UNL1        0.0406
     10 C         142.7384  138.9908  153.5667 C.ar    1  UNL1        0.0398
     11 C         142.8496  138.2785  154.8822 C.ar    1  UNL1        0.1363
     12 C         142.5188  138.9981  156.1560 C.ar    1  UNL1        0.0329
     13 C         142.2451  140.1325  155.2135 C.ar    1  UNL1        0.0378
     14 C         142.6303  138.2851  157.4710 C.3     1  UNL1        0.1046
     15 C         143.0725  136.8523  157.5121 C.3     1  UNL1        0.0718
     16 C         143.4033  136.1327  156.2383 C.3     1  UNL1        0.2075
     17 O         143.2918  136.8458  154.9233 O.3     1  UNL1       -0.4757
     18 N         142.5625  138.1019  158.9582 N.am    1  UNL1       -0.2761
     19 C         142.7909  137.0783  160.0307 C.3     1  UNL1        0.0956
     20 C         142.4817  137.7154  161.3529 C.3     1  UNL1        0.0466
     21 C         141.9560  139.3516  161.5520 C.3     1  UNL1        0.1337
     22 N         141.5097  140.5944  162.2637 N.3     1  UNL1       -0.2863
     23 C         141.0548  142.0153  162.4180 C.3     1  UNL1        0.1151
     24 C         140.6604  143.3983  161.9915 C.ar    1  UNL1        0.0739
     25 C         140.3934  143.8801  163.3867 C.ar    1  UNL1        0.1147
     26 N         139.9546  145.3123  163.3064 N.ar    1  UNL1       -0.2226
     27 C         139.9504  145.7155  161.8616 C.ar    1  UNL1        0.1786
     28 N         140.3866  144.5326  161.0489 N.ar    1  UNL1       -0.3070
     29 C         140.2752  145.2457  159.7339 C.3     1  UNL1        0.1341
     30 C         142.3257  138.4764  160.3913 C.2     1  UNL1        0.2401
     31 O         142.5411  137.7327  160.5812 O.2     1  UNL1       -0.2734
     32 H         142.3111  140.6616  162.8911 H       1  UNL1        0.1240
     33 N         140.8037  145.6420  151.9668 N.1     1  UNL1       -0.1907
     34 C         140.7063  145.5523  153.4609 C.1     1  UNL1        0.1035
@<TRIPOS>BOND
     1    33    34    3
     2    34     1    1
     3     1     2   ar
     4     2     3   ar
     5     3     4   ar
     6     4     5   ar
     7     5     6   ar
     8     6     7    1
     9     7     8    1
    10     8     9   ar
    11     9    10   ar
    12    10    11   ar
    13    11    12   ar
    14    12    13   ar
    15    12    14    1
    16    14    15    1
    17    15    16    1
    18    16    17    1
    19    14    18    1
    20    18    19    1
    21    19    20    1
    22    21    20    1
    23    21    22    1
    24    22    23    1
    25    23    24    1
    26    24    25   ar
    27    25    26   ar
    28    26    27   ar
    29    27    28   ar
    30    28    29    1
    31    21    30    1
    32    30    31    2
    33     6     1   ar
    34    13     8   ar
    35    30    18   am
    36    29     4    1
    37    17    11    1
    38    28    24   ar
    39    22    32    1
@<TRIPOS>MOLECULE
*****
 34 39 0 0 0
SMALL
GASTEIGER

@<TRIPOS>ATOM
      1 C         141.1202  143.8469  162.6361 C.ar    1  UNL1        0.1028
      2 C         140.6357  145.2654  162.5827 C.ar    1  UNL1        0.0131
      3 C         140.2836  145.8887  161.2645 C.ar    1  UNL1       -0.0015
      4 C         140.3053  145.3638  159.8180 C.ar    1  UNL1        0.0035
      5 C         140.7531  144.3628  160.8413 C.ar    1  UNL1        0.0358
      6 C         141.2527  143.0515  161.3713 C.ar    1  UNL1        0.1545
      7 O         141.7279  141.6295  161.3270 O.3     1  UNL1       -0.4528
      8 C         142.1065  140.3132  160.7153 C.ar    1  UNL1        0.1453
      9 C         142.6833  138.7644  161.2183 C.ar    1  UNL1        0.0406
     10 C         143.0155  137.5302  160.4334 C.ar    1  UNL1        0.0398
     11 C         142.8570  137.5247  158.9418 C.ar    1  UNL1        0.1363
     12 C         142.3664  138.7530  158.2343 C.ar    1  UNL1        0.0329
     13 C         142.3307  139.3032  159.6293 C.ar    1  UNL1        0.0378
     14 C         142.2083  138.7465  156.7426 C.3     1  UNL1        0.1046
     15 C         142.5407  137.5118  155.9585 C.3     1  UNL1        0.0718
     16 C         143.0314  136.2836  156.6660 C.3     1  UNL1        0.2075
     17 O         143.1895  136.2900  158.1576 O.3     1  UNL1       -0.4757
     18 N         141.8803  139.2848  155.3815 N.am    1  UNL1       -0.2761
     19 C         141.8570  138.8927  153.9338 C.3     1  UNL1        0.0956
     20 C         141.3740  140.0714  153.1419 C.3     1  UNL1        0.0466
     21 C         140.9328  141.5971  153.8281 C.3     1  UNL1        0.1337
     22 N         140.4576  143.0192  153.8724 N.3     1  UNL1       -0.2863
     23 C         140.0790  144.3355  154.4841 C.3     1  UNL1        0.1151
     24 C         139.8548  145.3456  155.5701 C.ar    1  UNL1        0.0739
     25 C         139.3908  146.4227  154.6350 C.ar    1  UNL1        0.1147
     26 N         139.0682  147.6385  155.4522 N.ar    1  UNL1       -0.2226
     27 C         139.3329  147.3128  156.8923 C.ar    1  UNL1        0.1786
     28 N         139.8191  145.8957  156.9652 N.ar    1  UNL1       -0.3070
     29 C         139.9773  145.9021  158.4568 C.3     1  UNL1        0.1341
     30 C         141.4324  140.2858  154.3580 C.2     1  UNL1        0.2401
     31 O         141.5628  139.7241  153.8076 O.2     1  UNL1       -0.2734
     32 H         139.5752  142.8607  153.3858 H       1  UNL1        0.1240
     33 N         141.8243  142.6005  165.2725 N.1     1  UNL1       -0.1907
     34 C         141.4723  143.2237  163.9543 C.1     1  UNL1        0.1035
@<TRIPOS>BOND
     1    33    34    3
     2    34     1    1
     3     1     2   ar
     4     2     3   ar
     5     3     4   ar
     6     4     5   ar
     7     5     6   ar
     8     6     7    1
     9     7     8    1
    10     8     9   ar
    11     9    10   ar
    12    10    11   ar
    13    11    12   ar
    14    12    13   ar
    15    12    14    1
    16    14    15    1
    17    15    16    1
    18    16    17    1
    19    14    18    1
    20    18    19    1
    21    19    20    1
    22    21    20    1
    23    21    22    1
    24    22    23    1
    25    23    24    1
    26    24    25   ar
    27    25    26   ar
    28    26    27   ar
    29    27    28   ar
    30    28    29    1
    31    21    30    1
    32    30    31    2
    33     6     1   ar
    34    13     8   ar
    35    30    18   am
    36    29     4    1
    37    17    11    1
    38    28    24   ar
    39    22    32    1
@<TRIPOS>MOLECULE
*****
 34 39 0 0 0
SMALL
GASTEIGER

@<TRIPOS>ATOM
      1 C         143.1817  139.9020  162.1829 C.ar    1  UNL1        0.1028
      2 C         143.6202  138.4679  162.2110 C.ar    1  UNL1        0.0131
      3 C         143.4934  137.6205  160.9798 C.ar    1  UNL1       -0.0015
      4 C         142.9693  137.9051  159.5611 C.ar    1  UNL1        0.0035
      5 C         142.9031  139.0825  160.4879 C.ar    1  UNL1        0.0358
      6 C         142.6163  140.4889  160.9236 C.ar    1  UNL1        0.1545
      7 O         142.1526  141.9101  160.8014 O.3     1  UNL1       -0.4528
      8 C         141.5825  143.1300  160.1402 C.ar    1  UNL1        0.1453
      9 C         141.2134  144.7704  160.5366 C.ar    1  UNL1        0.0406
     10 C         140.6267  145.8787  159.7136 C.ar    1  UNL1        0.0398
     11 C         140.2569  145.6338  158.2807 C.ar    1  UNL1        0.1363
     12 C         140.4734  144.2811  157.6699 C.ar    1  UNL1        0.0329
     13 C         140.9929  143.9625  159.0406 C.ar    1  UNL1        0.0378
     14 C         140.1033  144.0372  156.2369 C.3     1  UNL1        0.1046
     15 C         139.5166  145.1461  155.4146 C.3     1  UNL1        0.0718
     16 C         139.3001  146.4989  156.0254 C.3     1  UNL1        0.2075
     17 O         139.6702  146.7428  157.4584 O.3     1  UNL1       -0.4757
     18 N         139.9388  143.2680  154.9597 N.am    1  UNL1       -0.2761
     19 C         139.4567  143.4190  153.5473 C.3     1  UNL1        0.0956
     20 C         139.6367  142.1018  152.8527 C.3     1  UNL1        0.0466
     21 C         140.2918  140.6841  153.5972 C.3     1  UNL1        0.1337
     22 N         140.7556  139.2628  153.7193 N.3     1  UNL1       -0.2863
     23 C         141.3256  138.0430  154.3805 C.3     1  UNL1        0.1151
     24 C         141.9153  137.2105  155.4802 C.ar    1  UNL1        0.0739
     25 C         142.0275  135.9713  154.6423 C.ar    1  UNL1        0.1147
     26 N         142.6163  134.8870  155.4952 N.ar    1  UNL1       -0.2226
     27 C         142.8680  135.4559  156.8601 C.ar    1  UNL1        0.1786
     28 N         142.4347  136.8919  156.8508 N.ar    1  UNL1       -0.3070
     29 C         142.8048  137.1358  158.2839 C.3     1  UNL1        0.1341
     30 C         140.0050  142.0905  154.0327 C.2     1  UNL1        0.2401
     31 O         139.6903  142.5625  153.4727 O.2     1  UNL1       -0.2734
     32 H         141.4135  139.2893  152.9403 H       1  UNL1        0.1240
     33 N         143.4354  141.5968  164.6453 N.1     1  UNL1       -0.1907
     34 C         143.3085  140.7495  163.4141 C.1     1  UNL1        0.1035
@<TRIPOS>BOND
     1    33    34    3
     2    34     1    1
     3     1     2   ar
     4     2     3   ar
     5     3     4   ar
     6     4     5   ar
     7     5     6   ar
     8     6     7    1
     9     7     8    1
    10     8     9   ar
    11     9    10   ar
    12    10    11   ar
    13    11    12   ar
    14    12    13   ar
    15    12    14    1
    16    14    15    1
    17    15    16    1
    18    16    17    1
    19    14    18    1
    20    18    19    1
    21    19    20    1
    22    21    20    1
    23    21    22    1
    24    22    23    1
    25    23    24    1
    26    24    25   ar
    27    25    26   ar
    28    26    27   ar
    29    27    28   ar
    30    28    29    1
    31    21    30    1
    32    30    31    2
    33     6     1   ar
    34    13     8   ar
    35    30    18   am
    36    29     4    1
    37    17    11    1
    38    28    24   ar
    39    22    32    1
