@<TRIPOS>MOLECULE
*****
 37 40 0 0 0
SMALL
GASTEIGER

@<TRIPOS>ATOM
      1 N         140.9002  139.5946  166.9590 N.3     1  UNL1       -0.2691
      2 C         139.4145  139.5567  166.7562 C.3     1  UNL1        0.0724
      3 C         138.8383  138.8589  165.5600 C.3     1  UNL1        0.0188
      4 C         139.7479  138.1990  164.5664 C.3     1  UNL1        0.0188
      5 C         141.2337  138.2368  164.7691 C.3     1  UNL1        0.0188
      6 C         141.8099  138.9346  165.9654 C.3     1  UNL1        0.0724
      7 C         141.4764  140.2924  168.1553 C.3     1  UNL1        0.0987
      8 O         142.9144  138.9656  169.8646 O.co2   1  UNL1       -0.5478
      9 C         141.5997  139.5643  169.4610 C.2     1  UNL1        0.0652
     10 O         140.4082  139.4351  170.3630 O.co2   1  UNL1       -0.5478
     11 C         141.9293  141.7181  168.0459 C.3     1  UNL1        0.0480
     12 C         141.8462  142.4326  166.7295 C.ar    1  UNL1       -0.0205
     13 C         143.0826  142.6284  165.9031 C.ar    1  UNL1       -0.0042
     14 C         142.9994  143.3428  164.5868 C.ar    1  UNL1       -0.0004
     15 C         141.6799  143.8615  164.0970 C.ar    1  UNL1        0.0038
     16 C         140.4436  143.6657  164.9234 C.ar    1  UNL1        0.0711
     17 C         140.5267  142.9513  166.2397 C.ar    1  UNL1       -0.0004
     18 C         139.1241  144.1843  164.4335 C.3     1  UNL1        0.4186
     19 F         137.8046  144.7030  163.9437 F       1  UNL1       -0.1659
     20 F         138.9900  145.0156  165.6749 F       1  UNL1       -0.1659
     21 F         139.2582  143.3531  163.1922 F       1  UNL1       -0.1659
     22 C         139.1717  137.5012  163.3701 C.3     1  UNL1        0.0721
     23 N         138.9647  138.2548  162.0898 N.3     1  UNL1       -0.2724
     24 C         137.7010  139.0335  161.8738 C.3     1  UNL1        0.0758
     25 C         137.4939  139.7871  160.5935 C.3     1  UNL1        0.0609
     26 C         138.5507  139.7621  159.5293 C.3     1  UNL1        0.1687
     27 C         139.8144  138.9835  159.7453 C.3     1  UNL1        0.0609
     28 C         140.0214  138.2298  161.0256 C.3     1  UNL1        0.0758
     29 O         138.3437  140.5158  158.2489 O.3     1  UNL1       -0.4790
     30 C         138.8926  141.9036  158.0985 C.ar    1  UNL1        0.1393
     31 C         139.0004  142.5240  156.7370 C.ar    1  UNL1        0.0378
     32 C         139.5492  143.9119  156.5865 C.ar    1  UNL1        0.0154
     33 C         139.9902  144.6793  157.7976 C.ar    1  UNL1        0.0684
     34 CL        140.5391  146.0672  157.6472 Cl      1  UNL1       -0.0814
     35 C         139.8824  144.0590  159.1590 C.ar    1  UNL1        0.0712
     36 CL        140.3234  144.8264  160.3699 Cl      1  UNL1       -0.0813
     37 C         139.3336  142.6711  159.3094 C.ar    1  UNL1        0.0491
@<TRIPOS>UNITY_ATOM_ATTR
8 1
charge -1
@<TRIPOS>BOND
     1     8     9   ar
     2     9    10   ar
     3     9     7    1
     4     7    11    1
     5    11    12    1
     6    12    13   ar
     7    13    14   ar
     8    14    15   ar
     9    15    16   ar
    10    16    18    1
    11    18    19    1
    12    18    20    1
    13    18    21    1
    14    16    17   ar
    15     7     1    1
    16     1     2    1
    17     2     3    1
    18     3     4    1
    19     4    22    1
    20    22    23    1
    21    23    24    1
    22    24    25    1
    23    25    26    1
    24    26    29    1
    25    29    30    1
    26    30    31   ar
    27    31    32   ar
    28    32    33   ar
    29    33    34    1
    30    33    35   ar
    31    35    36    1
    32    35    37   ar
    33    26    27    1
    34    27    28    1
    35     4     5    1
    36     5     6    1
    37    17    12   ar
    38     6     1    1
    39    28    23    1
    40    37    30   ar
@<TRIPOS>MOLECULE
*****
 37 40 0 0 0
SMALL
GASTEIGER

@<TRIPOS>ATOM
      1 N         142.1079  140.0708  166.8177 N.3     1  UNL1       -0.2691
      2 C         142.4756  141.4493  166.3546 C.3     1  UNL1        0.0724
      3 C         143.4806  141.6281  165.2555 C.3     1  UNL1        0.0188
      4 C         144.1179  140.4285  164.6195 C.3     1  UNL1        0.0188
      5 C         143.7502  139.0499  165.0825 C.3     1  UNL1        0.0188
      6 C         142.7452  138.8710  166.1816 C.3     1  UNL1        0.0724
      7 C         141.1029  139.8919  167.9168 C.3     1  UNL1        0.0987
      8 O         140.5597  139.5169  170.4296 O.co2   1  UNL1       -0.5478
      9 C         141.5642  139.7103  169.3325 C.2     1  UNL1        0.0652
     10 O         143.0299  139.7222  169.6512 O.co2   1  UNL1       -0.5478
     11 C         139.6368  139.8947  167.6001 C.3     1  UNL1        0.0480
     12 C         139.1774  139.8353  166.1734 C.ar    1  UNL1       -0.0205
     13 C         139.1765  138.5271  165.4396 C.ar    1  UNL1       -0.0042
     14 C         138.7172  138.4678  164.0129 C.ar    1  UNL1       -0.0004
     15 C         138.2588  139.7167  163.3200 C.ar    1  UNL1        0.0038
     16 C         138.2597  141.0249  164.0538 C.ar    1  UNL1        0.0711
     17 C         138.7190  141.0842  165.4805 C.ar    1  UNL1       -0.0004
     18 C         137.8013  142.2739  163.3609 C.3     1  UNL1        0.4186
     19 F         137.3429  143.5228  162.6681 F       1  UNL1       -0.1659
     20 F         137.9038  141.5768  162.0367 F       1  UNL1       -0.1659
     21 F         137.6989  142.9709  164.6852 F       1  UNL1       -0.1659
     22 C         145.1229  140.6073  163.5204 C.3     1  UNL1        0.0721
     23 N         144.6637  140.9319  162.1297 N.3     1  UNL1       -0.2724
     24 C         144.6762  142.3525  161.6482 C.3     1  UNL1        0.0758
     25 C         144.2170  142.6771  160.2576 C.3     1  UNL1        0.0609
     26 C         143.7453  141.5811  159.3486 C.3     1  UNL1        0.1687
     27 C         143.7328  140.1606  159.8301 C.3     1  UNL1        0.0609
     28 C         144.1920  139.8360  161.2207 C.3     1  UNL1        0.0758
     29 O         143.2861  141.9057  157.9579 O.3     1  UNL1       -0.4790
     30 C         144.2897  142.2527  156.8985 C.ar    1  UNL1        0.1393
     31 C         143.8286  142.7858  155.5744 C.ar    1  UNL1        0.0378
     32 C         144.8322  143.1328  154.5150 C.ar    1  UNL1        0.0154
     33 C         146.2970  142.9467  154.7797 C.ar    1  UNL1        0.0684
     34 CL        147.3006  143.2937  153.7203 Cl      1  UNL1       -0.0814
     35 C         146.7580  142.4137  156.1038 C.ar    1  UNL1        0.0712
     36 CL        148.2226  142.2276  156.3685 Cl      1  UNL1       -0.0813
     37 C         145.7544  142.0667  157.1632 C.ar    1  UNL1        0.0491
@<TRIPOS>UNITY_ATOM_ATTR
8 1
charge -1
@<TRIPOS>BOND
     1     8     9   ar
     2     9    10   ar
     3     9     7    1
     4     7    11    1
     5    11    12    1
     6    12    13   ar
     7    13    14   ar
     8    14    15   ar
     9    15    16   ar
    10    16    18    1
    11    18    19    1
    12    18    20    1
    13    18    21    1
    14    16    17   ar
    15     7     1    1
    16     1     2    1
    17     2     3    1
    18     3     4    1
    19     4    22    1
    20    22    23    1
    21    23    24    1
    22    24    25    1
    23    25    26    1
    24    26    29    1
    25    29    30    1
    26    30    31   ar
    27    31    32   ar
    28    32    33   ar
    29    33    34    1
    30    33    35   ar
    31    35    36    1
    32    35    37   ar
    33    26    27    1
    34    27    28    1
    35     4     5    1
    36     5     6    1
    37    17    12   ar
    38     6     1    1
    39    28    23    1
    40    37    30   ar
@<TRIPOS>MOLECULE
*****
 37 40 0 0 0
SMALL
GASTEIGER

@<TRIPOS>ATOM
      1 N         143.0334  141.4128  166.6382 N.3     1  UNL1       -0.2691
      2 C         143.2473  140.0046  166.1678 C.3     1  UNL1        0.0724
      3 C         143.8465  139.7481  164.8168 C.3     1  UNL1        0.0188
      4 C         144.2318  140.8996  163.9363 C.3     1  UNL1        0.0188
      5 C         144.0180  142.3079  164.4067 C.3     1  UNL1        0.0188
      6 C         143.4188  142.5644  165.7577 C.3     1  UNL1        0.0724
      7 C         142.4342  141.6694  167.9892 C.3     1  UNL1        0.0987
      8 O         143.3284  140.4858  170.1222 O.co2   1  UNL1       -0.5478
      9 C         143.3081  141.6751  169.2084 C.2     1  UNL1        0.0652
     10 O         144.1615  142.8702  169.5138 O.co2   1  UNL1       -0.5478
     11 C         140.9612  141.9201  168.1210 C.3     1  UNL1        0.0480
     12 C         140.0071  141.3231  167.1294 C.ar    1  UNL1       -0.0205
     13 C         139.6110  142.0994  165.9086 C.ar    1  UNL1       -0.0042
     14 C         138.6569  141.5024  164.9170 C.ar    1  UNL1       -0.0004
     15 C         138.0989  140.1291  165.1463 C.ar    1  UNL1        0.0038
     16 C         138.4950  139.3528  166.3671 C.ar    1  UNL1        0.0711
     17 C         139.4491  139.9498  167.3586 C.ar    1  UNL1       -0.0004
     18 C         137.9369  137.9794  166.5963 C.3     1  UNL1        0.4186
     19 F         137.3789  136.6061  166.8256 F       1  UNL1       -0.1659
     20 F         138.7054  137.4697  165.4133 F       1  UNL1       -0.1659
     21 F         137.1685  138.4892  167.7794 F       1  UNL1       -0.1659
     22 C         144.8310  140.6431  162.5853 C.3     1  UNL1        0.0721
     23 N         143.9397  140.4147  161.4006 N.3     1  UNL1       -0.2724
     24 C         143.0293  139.2231  161.3657 C.3     1  UNL1        0.0758
     25 C         142.1380  138.9946  160.1811 C.3     1  UNL1        0.0609
     26 C         142.1571  139.9578  159.0314 C.3     1  UNL1        0.1687
     27 C         143.0675  141.1494  159.0663 C.3     1  UNL1        0.0609
     28 C         143.9588  141.3778  160.2509 C.3     1  UNL1        0.0758
     29 O         141.2657  139.7294  157.8467 O.3     1  UNL1       -0.4790
     30 C         141.4362  138.4988  157.0061 C.ar    1  UNL1        0.1393
     31 C         140.2307  137.7594  156.5058 C.ar    1  UNL1        0.0378
     32 C         140.4012  136.5289  155.6651 C.ar    1  UNL1        0.0154
     33 C         141.7771  136.0377  155.3249 C.ar    1  UNL1        0.0684
     34 CL        141.9475  134.8071  154.4843 Cl      1  UNL1       -0.0814
     35 C         142.9825  136.7771  155.8252 C.ar    1  UNL1        0.0712
     36 CL        144.3583  136.2859  155.4849 Cl      1  UNL1       -0.0813
     37 C         142.8120  138.0076  156.6658 C.ar    1  UNL1        0.0491
@<TRIPOS>UNITY_ATOM_ATTR
8 1
charge -1
@<TRIPOS>BOND
     1     8     9   ar
     2     9    10   ar
     3     9     7    1
     4     7    11    1
     5    11    12    1
     6    12    13   ar
     7    13    14   ar
     8    14    15   ar
     9    15    16   ar
    10    16    18    1
    11    18    19    1
    12    18    20    1
    13    18    21    1
    14    16    17   ar
    15     7     1    1
    16     1     2    1
    17     2     3    1
    18     3     4    1
    19     4    22    1
    20    22    23    1
    21    23    24    1
    22    24    25    1
    23    25    26    1
    24    26    29    1
    25    29    30    1
    26    30    31   ar
    27    31    32   ar
    28    32    33   ar
    29    33    34    1
    30    33    35   ar
    31    35    36    1
    32    35    37   ar
    33    26    27    1
    34    27    28    1
    35     4     5    1
    36     5     6    1
    37    17    12   ar
    38     6     1    1
    39    28    23    1
    40    37    30   ar
@<TRIPOS>MOLECULE
*****
 37 40 0 0 0
SMALL
GASTEIGER

@<TRIPOS>ATOM
      1 N         140.5396  140.6997  167.3633 N.3     1  UNL1       -0.2691
      2 C         140.3915  142.1556  167.0339 C.3     1  UNL1        0.0724
      3 C         141.4814  142.8715  166.2926 C.3     1  UNL1        0.0188
      4 C         142.7194  142.1315  165.8807 C.3     1  UNL1        0.0188
      5 C         142.8676  140.6756  166.2101 C.3     1  UNL1        0.0188
      6 C         141.7777  139.9597  166.9514 C.3     1  UNL1        0.0724
      7 C         139.4497  139.9838  168.1047 C.3     1  UNL1        0.0987
      8 O         138.2473  140.6350  170.3138 O.co2   1  UNL1       -0.5478
      9 C         139.4154  140.0171  169.6040 C.2     1  UNL1        0.0652
     10 O         140.5490  139.4326  170.3933 O.co2   1  UNL1       -0.5478
     11 C         138.3941  139.2346  167.3468 C.3     1  UNL1        0.0480
     12 C         138.4555  139.1608  165.8498 C.ar    1  UNL1       -0.0205
     13 C         138.8713  137.8857  165.1782 C.ar    1  UNL1       -0.0042
     14 C         138.9326  137.8119  163.6813 C.ar    1  UNL1       -0.0004
     15 C         138.5782  139.0133  162.8560 C.ar    1  UNL1        0.0038
     16 C         138.1625  140.2884  163.5276 C.ar    1  UNL1        0.0711
     17 C         138.1011  140.3622  165.0245 C.ar    1  UNL1       -0.0004
     18 C         137.8081  141.4898  162.7024 C.3     1  UNL1        0.4186
     19 F         137.4537  142.6912  161.8771 F       1  UNL1       -0.1659
     20 F         137.4864  140.5970  161.5407 F       1  UNL1       -0.1659
     21 F         138.1297  142.3827  163.8640 F       1  UNL1       -0.1659
     22 C         143.8093  142.8475  165.1394 C.3     1  UNL1        0.0721
     23 N         143.7962  142.8862  163.6399 N.3     1  UNL1       -0.2724
     24 C         144.9229  142.2711  162.8639 C.3     1  UNL1        0.0758
     25 C         144.9099  142.3098  161.3645 C.3     1  UNL1        0.0609
     26 C         143.7700  142.9635  160.6410 C.3     1  UNL1        0.1687
     27 C         142.6433  143.5785  161.4170 C.3     1  UNL1        0.0609
     28 C         142.6563  143.5398  162.9164 C.3     1  UNL1        0.0758
     29 O         143.7569  143.0022  159.1416 O.3     1  UNL1       -0.4790
     30 C         142.4734  143.2599  158.4092 C.ar    1  UNL1        0.1393
     31 C         141.5143  142.1343  158.1579 C.ar    1  UNL1        0.0378
     32 C         140.2308  142.3920  157.4255 C.ar    1  UNL1        0.0154
     33 C         139.9065  143.7753  156.9445 C.ar    1  UNL1        0.0684
     34 CL        138.6231  144.0330  156.2121 Cl      1  UNL1       -0.0814
     35 C         140.8657  144.9008  157.1958 C.ar    1  UNL1        0.0712
     36 CL        140.5414  146.2840  156.7147 Cl      1  UNL1       -0.0813
     37 C         142.1491  144.6431  157.9281 C.ar    1  UNL1        0.0491
@<TRIPOS>UNITY_ATOM_ATTR
8 1
charge -1
@<TRIPOS>BOND
     1     8     9   ar
     2     9    10   ar
     3     9     7    1
     4     7    11    1
     5    11    12    1
     6    12    13   ar
     7    13    14   ar
     8    14    15   ar
     9    15    16   ar
    10    16    18    1
    11    18    19    1
    12    18    20    1
    13    18    21    1
    14    16    17   ar
    15     7     1    1
    16     1     2    1
    17     2     3    1
    18     3     4    1
    19     4    22    1
    20    22    23    1
    21    23    24    1
    22    24    25    1
    23    25    26    1
    24    26    29    1
    25    29    30    1
    26    30    31   ar
    27    31    32   ar
    28    32    33   ar
    29    33    34    1
    30    33    35   ar
    31    35    36    1
    32    35    37   ar
    33    26    27    1
    34    27    28    1
    35     4     5    1
    36     5     6    1
    37    17    12   ar
    38     6     1    1
    39    28    23    1
    40    37    30   ar
@<TRIPOS>MOLECULE
*****
 37 40 0 0 0
SMALL
GASTEIGER

@<TRIPOS>ATOM
      1 N         140.3256  140.6252  167.7352 N.3     1  UNL1       -0.2691
      2 C         140.2480  142.0228  167.1959 C.3     1  UNL1        0.0724
      3 C         141.4617  142.6603  166.5871 C.3     1  UNL1        0.0188
      4 C         142.7530  141.9002  166.5176 C.3     1  UNL1        0.0188
      5 C         142.8306  140.5026  167.0568 C.3     1  UNL1        0.0188
      6 C         141.6170  139.8651  167.6656 C.3     1  UNL1        0.0724
      7 C         139.1120  139.9878  168.3440 C.3     1  UNL1        0.0987
      8 O         139.4749  141.3499  170.5264 O.co2   1  UNL1       -0.5478
      9 C         138.7481  140.2777  169.7700 C.2     1  UNL1        0.0652
     10 O         137.6575  139.4953  170.4397 O.co2   1  UNL1       -0.5478
     11 C         138.2622  139.0604  167.5268 C.3     1  UNL1        0.0480
     12 C         138.3898  139.0474  166.0322 C.ar    1  UNL1       -0.0205
     13 C         138.8845  137.8163  165.3325 C.ar    1  UNL1       -0.0042
     14 C         139.0121  137.8033  163.8380 C.ar    1  UNL1       -0.0004
     15 C         138.6450  139.0213  163.0433 C.ar    1  UNL1        0.0038
     16 C         138.1503  140.2524  163.7430 C.ar    1  UNL1        0.0711
     17 C         138.0227  140.2654  165.2375 C.ar    1  UNL1       -0.0004
     18 C         137.7831  141.4704  162.9483 C.3     1  UNL1        0.4186
     19 F         137.4160  142.6885  162.1536 F       1  UNL1       -0.1659
     20 F         137.4770  142.2070  164.2186 F       1  UNL1       -0.1659
     21 F         138.0893  140.7339  161.6780 F       1  UNL1       -0.1659
     22 C         143.9666  142.5377  165.9088 C.3     1  UNL1        0.0721
     23 N         144.1519  142.5281  164.4202 N.3     1  UNL1       -0.2724
     24 C         144.6475  141.2898  163.7341 C.3     1  UNL1        0.0758
     25 C         144.8328  141.2802  162.2456 C.3     1  UNL1        0.0609
     26 C         144.5225  142.5090  161.4433 C.3     1  UNL1        0.1687
     27 C         144.0269  143.7473  162.1295 C.3     1  UNL1        0.0609
     28 C         143.8416  143.7569  163.6179 C.3     1  UNL1        0.0758
     29 O         144.7077  142.4994  159.9548 O.3     1  UNL1       -0.4790
     30 C         143.7228  141.7808  159.0810 C.ar    1  UNL1        0.1393
     31 C         144.2025  140.7586  158.0935 C.ar    1  UNL1        0.0378
     32 C         143.2176  140.0399  157.2197 C.ar    1  UNL1        0.0154
     33 C         141.7530  140.3434  157.3335 C.ar    1  UNL1        0.0684
     34 CL        140.7681  139.6248  156.4598 Cl      1  UNL1       -0.0814
     35 C         141.2734  141.3655  158.3210 C.ar    1  UNL1        0.0712
     36 CL        139.8088  141.6690  158.4347 Cl      1  UNL1       -0.0813
     37 C         142.2583  142.0842  159.1948 C.ar    1  UNL1        0.0491
@<TRIPOS>UNITY_ATOM_ATTR
8 1
charge -1
@<TRIPOS>BOND
     1     8     9   ar
     2     9    10   ar
     3     9     7    1
     4     7    11    1
     5    11    12    1
     6    12    13   ar
     7    13    14   ar
     8    14    15   ar
     9    15    16   ar
    10    16    18    1
    11    18    19    1
    12    18    20    1
    13    18    21    1
    14    16    17   ar
    15     7     1    1
    16     1     2    1
    17     2     3    1
    18     3     4    1
    19     4    22    1
    20    22    23    1
    21    23    24    1
    22    24    25    1
    23    25    26    1
    24    26    29    1
    25    29    30    1
    26    30    31   ar
    27    31    32   ar
    28    32    33   ar
    29    33    34    1
    30    33    35   ar
    31    35    36    1
    32    35    37   ar
    33    26    27    1
    34    27    28    1
    35     4     5    1
    36     5     6    1
    37    17    12   ar
    38     6     1    1
    39    28    23    1
    40    37    30   ar
@<TRIPOS>MOLECULE
*****
 37 40 0 0 0
SMALL
GASTEIGER

@<TRIPOS>ATOM
      1 N         140.2329  139.8455  167.0190 N.3     1  UNL1       -0.2691
      2 C         138.9688  139.5339  166.2742 C.3     1  UNL1        0.0724
      3 C         139.0059  138.6265  165.0803 C.3     1  UNL1        0.0188
      4 C         140.3072  138.0306  164.6314 C.3     1  UNL1        0.0188
      5 C         141.5714  138.3423  165.3762 C.3     1  UNL1        0.0188
      6 C         141.5343  139.2497  166.5700 C.3     1  UNL1        0.0724
      7 C         140.1957  140.7529  168.2128 C.3     1  UNL1        0.0987
      8 O         138.5920  140.5697  170.2486 O.co2   1  UNL1       -0.5478
      9 C         139.8756  140.1961  169.5684 C.2     1  UNL1        0.0652
     10 O         140.8392  139.2658  170.2438 O.co2   1  UNL1       -0.5478
     11 C         140.4787  142.2171  168.0511 C.3     1  UNL1        0.0480
     12 C         140.9157  142.7540  166.7204 C.ar    1  UNL1       -0.0205
     13 C         142.3466  142.6198  166.2907 C.ar    1  UNL1       -0.0042
     14 C         142.7836  143.1567  164.9601 C.ar    1  UNL1       -0.0004
     15 C         141.7898  143.8278  164.0591 C.ar    1  UNL1        0.0038
     16 C         140.3589  143.9621  164.4887 C.ar    1  UNL1        0.0711
     17 C         139.9219  143.4251  165.8193 C.ar    1  UNL1       -0.0004
     18 C         139.3651  144.6332  163.5877 C.3     1  UNL1        0.4186
     19 F         138.3712  145.3044  162.6866 F       1  UNL1       -0.1659
     20 F         138.6869  145.2340  164.7832 F       1  UNL1       -0.1659
     21 F         140.0432  144.0325  162.3922 F       1  UNL1       -0.1659
     22 C         140.3444  137.1232  163.4375 C.3     1  UNL1        0.0721
     23 N         140.6262  137.6862  162.0760 N.3     1  UNL1       -0.2724
     24 C         139.4993  138.1960  161.2273 C.3     1  UNL1        0.0758
     25 C         139.7811  138.7590  159.8658 C.3     1  UNL1        0.0609
     26 C         141.1897  138.8122  159.3531 C.3     1  UNL1        0.1687
     27 C         142.3165  138.3024  160.2018 C.3     1  UNL1        0.0609
     28 C         142.0348  137.7394  161.5633 C.3     1  UNL1        0.0758
     29 O         141.4715  139.3752  157.9916 O.3     1  UNL1       -0.4790
     30 C         142.7285  140.1569  157.7487 C.ar    1  UNL1        0.1393
     31 C         143.0373  141.3606  158.5888 C.ar    1  UNL1        0.0378
     32 C         144.2943  142.1423  158.3459 C.ar    1  UNL1        0.0154
     33 C         145.2425  141.7201  157.2630 C.ar    1  UNL1        0.0684
     34 CL        146.4995  142.5017  157.0201 Cl      1  UNL1       -0.0814
     35 C         144.9337  140.5164  156.4230 C.ar    1  UNL1        0.0712
     36 CL        145.8820  140.0943  155.3401 Cl      1  UNL1       -0.0813
     37 C         143.6767  139.7348  156.6658 C.ar    1  UNL1        0.0491
@<TRIPOS>UNITY_ATOM_ATTR
8 1
charge -1
@<TRIPOS>BOND
     1     8     9   ar
     2     9    10   ar
     3     9     7    1
     4     7    11    1
     5    11    12    1
     6    12    13   ar
     7    13    14   ar
     8    14    15   ar
     9    15    16   ar
    10    16    18    1
    11    18    19    1
    12    18    20    1
    13    18    21    1
    14    16    17   ar
    15     7     1    1
    16     1     2    1
    17     2     3    1
    18     3     4    1
    19     4    22    1
    20    22    23    1
    21    23    24    1
    22    24    25    1
    23    25    26    1
    24    26    29    1
    25    29    30    1
    26    30    31   ar
    27    31    32   ar
    28    32    33   ar
    29    33    34    1
    30    33    35   ar
    31    35    36    1
    32    35    37   ar
    33    26    27    1
    34    27    28    1
    35     4     5    1
    36     5     6    1
    37    17    12   ar
    38     6     1    1
    39    28    23    1
    40    37    30   ar
@<TRIPOS>MOLECULE
*****
 37 40 0 0 0
SMALL
GASTEIGER

@<TRIPOS>ATOM
      1 N         140.2137  142.1421  159.1888 N.3     1  UNL1       -0.2691
      2 C         141.0576  141.0190  159.7145 C.3     1  UNL1        0.0724
      3 C         140.4331  139.9363  160.5437 C.3     1  UNL1        0.0188
      4 C         138.9648  139.9766  160.8473 C.3     1  UNL1        0.0188
      5 C         138.1208  141.0997  160.3216 C.3     1  UNL1        0.0188
      6 C         138.7452  142.1825  159.4923 C.3     1  UNL1        0.0724
      7 C         140.8381  143.2249  158.3595 C.3     1  UNL1        0.0987
      8 O         139.2280  143.8242  156.4105 O.co2   1  UNL1       -0.5478
      9 C         140.5508  143.3036  156.8893 C.2     1  UNL1        0.0652
     10 O         141.5862  142.8618  155.8980 O.co2   1  UNL1       -0.5478
     11 C         141.7499  144.2288  159.0003 C.3     1  UNL1        0.0480
     12 C         141.5577  144.6052  160.4396 C.ar    1  UNL1       -0.0205
     13 C         140.3897  145.4555  160.8430 C.ar    1  UNL1       -0.0042
     14 C         140.1976  145.8319  162.2822 C.ar    1  UNL1       -0.0004
     15 C         141.1735  145.3579  163.3180 C.ar    1  UNL1        0.0038
     16 C         142.3416  144.5077  162.9147 C.ar    1  UNL1        0.0711
     17 C         142.5336  144.1313  161.4755 C.ar    1  UNL1       -0.0004
     18 C         143.3175  144.0338  163.9505 C.3     1  UNL1        0.4186
     19 F         144.2934  143.5598  164.9864 F       1  UNL1       -0.1659
     20 F         142.8137  142.6308  163.7833 F       1  UNL1       -0.1659
     21 F         143.8213  145.4367  164.1177 F       1  UNL1       -0.1659
     22 C         138.3403  138.8938  161.6766 C.3     1  UNL1        0.0721
     23 N         138.4317  138.9481  163.1728 N.3     1  UNL1       -0.2724
     24 C         138.0925  140.2157  163.8995 C.3     1  UNL1        0.0758
     25 C         138.1839  140.2700  165.3957 C.3     1  UNL1        0.0609
     26 C         138.6145  139.0567  166.1652 C.3     1  UNL1        0.1687
     27 C         138.9537  137.7890  165.4386 C.3     1  UNL1        0.0609
     28 C         138.8623  137.7347  163.9424 C.3     1  UNL1        0.0758
     29 O         138.7059  139.1109  167.6615 O.3     1  UNL1       -0.4790
     30 C         139.5877  140.1285  168.3226 C.ar    1  UNL1        0.1393
     31 C         139.2246  140.6714  169.6730 C.ar    1  UNL1        0.0378
     32 C         140.1065  141.6889  170.3341 C.ar    1  UNL1        0.0154
     33 C         141.3514  142.1635  169.6448 C.ar    1  UNL1        0.0684
     34 CL        142.2332  143.1810  170.3059 Cl      1  UNL1       -0.0814
     35 C         141.7144  141.6205  168.2945 C.ar    1  UNL1        0.0712
     36 CL        142.9592  142.0951  167.6053 Cl      1  UNL1       -0.0813
     37 C         140.8326  140.6030  167.6334 C.ar    1  UNL1        0.0491
@<TRIPOS>UNITY_ATOM_ATTR
8 1
charge -1
@<TRIPOS>BOND
     1     8     9   ar
     2     9    10   ar
     3     9     7    1
     4     7    11    1
     5    11    12    1
     6    12    13   ar
     7    13    14   ar
     8    14    15   ar
     9    15    16   ar
    10    16    18    1
    11    18    19    1
    12    18    20    1
    13    18    21    1
    14    16    17   ar
    15     7     1    1
    16     1     2    1
    17     2     3    1
    18     3     4    1
    19     4    22    1
    20    22    23    1
    21    23    24    1
    22    24    25    1
    23    25    26    1
    24    26    29    1
    25    29    30    1
    26    30    31   ar
    27    31    32   ar
    28    32    33   ar
    29    33    34    1
    30    33    35   ar
    31    35    36    1
    32    35    37   ar
    33    26    27    1
    34    27    28    1
    35     4     5    1
    36     5     6    1
    37    17    12   ar
    38     6     1    1
    39    28    23    1
    40    37    30   ar
@<TRIPOS>MOLECULE
*****
 37 40 0 0 0
SMALL
GASTEIGER

@<TRIPOS>ATOM
      1 N         143.2222  138.7370  157.8631 N.3     1  UNL1       -0.2691
      2 C         142.9731  138.1665  159.2278 C.3     1  UNL1        0.0724
      3 C         143.2584  138.9901  160.4486 C.3     1  UNL1        0.0188
      4 C         143.7928  140.3842  160.3046 C.3     1  UNL1        0.0188
      5 C         144.0419  140.9548  158.9399 C.3     1  UNL1        0.0188
      6 C         143.7567  140.1312  157.7191 C.3     1  UNL1        0.0724
      7 C         142.9370  137.9133  156.6424 C.3     1  UNL1        0.0987
      8 O         145.2027  137.9411  155.3711 O.co2   1  UNL1       -0.5478
      9 C         143.7167  138.1454  155.3821 C.2     1  UNL1        0.0652
     10 O         143.0104  138.5817  154.1328 O.co2   1  UNL1       -0.5478
     11 C         141.8721  136.8577  156.6819 C.3     1  UNL1        0.0480
     12 C         142.2227  135.4275  156.3959 C.ar    1  UNL1       -0.0205
     13 C         141.4268  134.6463  155.3928 C.ar    1  UNL1       -0.0042
     14 C         141.7775  133.2162  155.1069 C.ar    1  UNL1       -0.0004
     15 C         142.9241  132.5673  155.8240 C.ar    1  UNL1        0.0038
     16 C         143.7200  133.3485  156.8271 C.ar    1  UNL1        0.0711
     17 C         143.3693  134.7786  157.1130 C.ar    1  UNL1       -0.0004
     18 C         144.8666  132.6996  157.5442 C.3     1  UNL1        0.4186
     19 F         146.0131  132.0507  158.2614 F       1  UNL1       -0.1659
     20 F         144.5971  133.5535  158.7477 F       1  UNL1       -0.1659
     21 F         145.1360  131.8457  156.3408 F       1  UNL1       -0.1659
     22 C         144.0780  141.2079  161.5254 C.3     1  UNL1        0.0721
     23 N         143.6787  140.7036  162.8805 N.3     1  UNL1       -0.2724
     24 C         144.5673  139.7443  163.6156 C.3     1  UNL1        0.0758
     25 C         144.1680  139.2400  164.9706 C.3     1  UNL1        0.0609
     26 C         142.8802  139.6950  165.5906 C.3     1  UNL1        0.1687
     27 C         141.9916  140.6542  164.8556 C.3     1  UNL1        0.0609
     28 C         142.3909  141.1585  163.5005 C.3     1  UNL1        0.0758
     29 O         142.4808  139.1907  166.9458 O.3     1  UNL1       -0.4790
     30 C         141.7703  140.0993  167.9047 C.ar    1  UNL1        0.1393
     31 C         140.3096  139.9013  168.1831 C.ar    1  UNL1        0.0378
     32 C         139.5991  140.8100  169.1420 C.ar    1  UNL1        0.0154
     33 C         140.3492  141.9165  169.8225 C.ar    1  UNL1        0.0684
     34 CL        139.6386  142.8251  170.7815 Cl      1  UNL1       -0.0814
     35 C         141.8097  142.1143  169.5441 C.ar    1  UNL1        0.0712
     36 CL        142.5597  143.2208  170.2247 Cl      1  UNL1       -0.0813
     37 C         142.5203  141.2057  168.5852 C.ar    1  UNL1        0.0491
@<TRIPOS>UNITY_ATOM_ATTR
8 1
charge -1
@<TRIPOS>BOND
     1     8     9   ar
     2     9    10   ar
     3     9     7    1
     4     7    11    1
     5    11    12    1
     6    12    13   ar
     7    13    14   ar
     8    14    15   ar
     9    15    16   ar
    10    16    18    1
    11    18    19    1
    12    18    20    1
    13    18    21    1
    14    16    17   ar
    15     7     1    1
    16     1     2    1
    17     2     3    1
    18     3     4    1
    19     4    22    1
    20    22    23    1
    21    23    24    1
    22    24    25    1
    23    25    26    1
    24    26    29    1
    25    29    30    1
    26    30    31   ar
    27    31    32   ar
    28    32    33   ar
    29    33    34    1
    30    33    35   ar
    31    35    36    1
    32    35    37   ar
    33    26    27    1
    34    27    28    1
    35     4     5    1
    36     5     6    1
    37    17    12   ar
    38     6     1    1
    39    28    23    1
    40    37    30   ar
@<TRIPOS>MOLECULE
*****
 37 40 0 0 0
SMALL
GASTEIGER

@<TRIPOS>ATOM
      1 N         140.8124  139.6156  166.8662 N.3     1  UNL1       -0.2691
      2 C         141.6503  138.9736  165.8005 C.3     1  UNL1        0.0724
      3 C         140.9924  138.3158  164.6238 C.3     1  UNL1        0.0188
      4 C         139.4967  138.3000  164.5129 C.3     1  UNL1        0.0188
      5 C         138.6587  138.9420  165.5786 C.3     1  UNL1        0.0188
      6 C         139.3165  139.5998  166.7552 C.3     1  UNL1        0.0724
      7 C         141.4702  140.2734  168.0428 C.3     1  UNL1        0.0987
      8 O         142.9299  138.7670  169.5759 O.co2   1  UNL1       -0.5478
      9 C         141.6530  139.5121  169.3224 C.2     1  UNL1        0.0652
     10 O         140.5588  139.4959  170.3482 O.co2   1  UNL1       -0.5478
     11 C         141.9453  141.6924  167.9400 C.3     1  UNL1        0.0480
     12 C         141.6575  142.4920  166.7039 C.ar    1  UNL1       -0.0205
     13 C         140.2842  143.0500  166.4745 C.ar    1  UNL1       -0.0042
     14 C         139.9964  143.8496  165.2385 C.ar    1  UNL1       -0.0004
     15 C         141.0819  144.0912  164.2319 C.ar    1  UNL1        0.0038
     16 C         142.4552  143.5332  164.4613 C.ar    1  UNL1        0.0711
     17 C         142.7430  142.7336  165.6973 C.ar    1  UNL1       -0.0004
     18 C         143.5407  143.7748  163.4547 C.3     1  UNL1        0.4186
     19 F         144.6262  144.0164  162.4480 F       1  UNL1       -0.1659
     20 F         143.2889  145.2512  163.5374 F       1  UNL1       -0.1659
     21 F         143.7926  142.2984  163.3719 F       1  UNL1       -0.1659
     22 C         138.8388  137.6422  163.3362 C.3     1  UNL1        0.0721
     23 N         138.8461  138.3191  161.9976 N.3     1  UNL1       -0.2724
     24 C         139.9897  138.0989  161.0521 C.3     1  UNL1        0.0758
     25 C         139.9970  138.7757  159.7135 C.3     1  UNL1        0.0609
     26 C         138.8609  139.6728  159.3205 C.3     1  UNL1        0.1687
     27 C         137.7174  139.8929  160.2659 C.3     1  UNL1        0.0609
     28 C         137.7100  139.2161  161.6045 C.3     1  UNL1        0.0758
     29 O         138.8683  140.3497  157.9818 O.3     1  UNL1       -0.4790
     30 C         139.2709  141.7905  157.8722 C.ar    1  UNL1        0.1393
     31 C         138.7842  142.6196  156.7208 C.ar    1  UNL1        0.0378
     32 C         139.1867  144.0605  156.6112 C.ar    1  UNL1        0.0154
     33 C         140.0760  144.6721  157.6529 C.ar    1  UNL1        0.0684
     34 CL        140.4786  146.1129  157.5433 Cl      1  UNL1       -0.0814
     35 C         140.5627  143.8429  158.8042 C.ar    1  UNL1        0.0712
     36 CL        141.4519  144.4545  159.8459 Cl      1  UNL1       -0.0813
     37 C         140.1601  142.4021  158.9139 C.ar    1  UNL1        0.0491
@<TRIPOS>UNITY_ATOM_ATTR
8 1
charge -1
@<TRIPOS>BOND
     1     8     9   ar
     2     9    10   ar
     3     9     7    1
     4     7    11    1
     5    11    12    1
     6    12    13   ar
     7    13    14   ar
     8    14    15   ar
     9    15    16   ar
    10    16    18    1
    11    18    19    1
    12    18    20    1
    13    18    21    1
    14    16    17   ar
    15     7     1    1
    16     1     2    1
    17     2     3    1
    18     3     4    1
    19     4    22    1
    20    22    23    1
    21    23    24    1
    22    24    25    1
    23    25    26    1
    24    26    29    1
    25    29    30    1
    26    30    31   ar
    27    31    32   ar
    28    32    33   ar
    29    33    34    1
    30    33    35   ar
    31    35    36    1
    32    35    37   ar
    33    26    27    1
    34    27    28    1
    35     4     5    1
    36     5     6    1
    37    17    12   ar
    38     6     1    1
    39    28    23    1
    40    37    30   ar
