@<TRIPOS>MOLECULE
*****
 30 32 0 0 0
SMALL
GASTEIGER

@<TRIPOS>ATOM
      1 C         139.5306  143.6013  163.8613 C.2     1  UNL1        0.2414
      2 O         138.4722  144.6636  163.8934 O.2     1  UNL1       -0.2734
      3 N         140.4560  143.4998  162.6852 N.am    1  UNL1       -0.2749
      4 C         141.5145  142.4374  162.6531 C.3     1  UNL1        0.1150
      5 C         142.4398  142.3359  161.4769 C.3     1  UNL1        0.1165
      6 N         142.3067  143.2968  160.3328 N.am    1  UNL1       -0.2605
      7 C         143.2321  143.1952  159.1566 C.2     1  UNL1        0.3078
      8 O         143.0990  144.1561  158.0124 O.2     1  UNL1       -0.2522
      9 N         144.2905  142.1329  159.1246 N.am    1  UNL1       -0.2681
     10 C         141.2482  144.3591  160.3648 C.3     1  UNL1        0.1165
     11 C         140.3229  144.4606  161.5410 C.3     1  UNL1        0.1150
     12 H         144.3779  141.5022  159.8755 H       1  UNL1        0.1564
     13 C         145.2159  142.0314  157.9483 C.ar    1  UNL1        0.0525
     14 C         146.4797  142.8388  157.9165 C.ar    1  UNL1        0.0156
     15 C         147.4050  142.7373  156.7403 C.ar    1  UNL1        0.0135
     16 C         147.0666  141.8285  155.5960 C.ar    1  UNL1        0.0683
     17 CL        147.9920  141.7270  154.4198 Cl      1  UNL1       -0.0814
     18 C         145.8029  141.0211  155.6279 C.ar    1  UNL1        0.0694
     19 CL        145.4645  140.1123  154.4835 Cl      1  UNL1       -0.0813
     20 C         144.8775  141.1226  156.8040 C.ar    1  UNL1        0.0270
     21 N         139.1600  140.3239  166.0684 N.3     1  UNL1       -0.2713
     22 C         139.9299  140.7187  167.2937 C.3     1  UNL1        0.0894
     23 C         140.5667  142.0744  167.3749 C.3     1  UNL1        0.0865
     24 N         140.4336  143.0352  166.2308 N.3     1  UNL1       -0.2890
     25 C         139.6637  142.6404  165.0055 C.3     1  UNL1        0.1479
     26 C         139.0269  141.2847  164.9243 C.3     1  UNL1        0.0974
     27 H         141.3799  143.2607  165.9240 H       1  UNL1        0.1237
     28 C         138.8362  138.0603  164.8350 C.3     1  UNL1        0.0173
     29 C         138.5232  138.9682  165.9873 C.3     1  UNL1        0.0577
     30 C         137.5734  138.5204  167.0583 C.3     1  UNL1        0.0173
@<TRIPOS>BOND
     1    28    29    1
     2    29    30    1
     3    29    21    1
     4    21    22    1
     5    22    23    1
     6    23    24    1
     7    24    25    1
     8    25     1    1
     9     1     2    2
    10     1     3   am
    11     3     4    1
    12     4     5    1
    13     5     6    1
    14     6     7   am
    15     7     8    2
    16     7     9   am
    17     9    13    1
    18    13    14   ar
    19    14    15   ar
    20    15    16   ar
    21    16    17    1
    22    16    18   ar
    23    18    19    1
    24    18    20   ar
    25     6    10    1
    26    10    11    1
    27    25    26    1
    28    26    21    1
    29    11     3    1
    30    20    13   ar
    31    24    27    1
    32     9    12    1
@<TRIPOS>MOLECULE
*****
 30 32 0 0 0
SMALL
GASTEIGER

@<TRIPOS>ATOM
      1 C         143.2733  143.2182  162.2610 C.2     1  UNL1        0.2414
      2 O         144.1903  144.3955  162.1084 O.2     1  UNL1       -0.2734
      3 N         143.2323  142.1572  161.2016 N.am    1  UNL1       -0.2749
      4 C         142.3153  140.9800  161.3542 C.3     1  UNL1        0.1150
      5 C         142.2744  139.9189  160.2947 C.3     1  UNL1        0.1165
      6 N         143.1503  140.0351  159.0826 N.am    1  UNL1       -0.2605
      7 C         143.1093  138.9741  158.0231 C.2     1  UNL1        0.3078
      8 O         143.9853  139.0902  156.8110 O.2     1  UNL1       -0.2522
      9 N         142.1923  137.7969  158.1758 N.am    1  UNL1       -0.2681
     10 C         144.0673  141.2123  158.9300 C.3     1  UNL1        0.1165
     11 C         144.1083  142.2734  159.9894 C.3     1  UNL1        0.1150
     12 H         141.6174  137.7206  158.9713 H       1  UNL1        0.1564
     13 C         142.1513  136.7358  157.1162 C.ar    1  UNL1        0.0525
     14 C         141.1165  136.7981  156.0321 C.ar    1  UNL1        0.0156
     15 C         141.0755  135.7371  154.9726 C.ar    1  UNL1        0.0135
     16 C         142.0693  134.6138  154.9972 C.ar    1  UNL1        0.0683
     17 CL        142.0283  133.5528  153.9377 Cl      1  UNL1       -0.0814
     18 C         143.1041  134.5516  156.0813 C.ar    1  UNL1        0.0694
     19 CL        144.0979  133.4283  156.1059 Cl      1  UNL1       -0.0813
     20 C         143.1451  135.6126  157.1408 C.ar    1  UNL1        0.0270
     21 N         140.1619  143.6198  164.6916 N.3     1  UNL1       -0.2713
     22 C         140.6454  142.8698  165.8973 C.3     1  UNL1        0.0894
     23 C         142.0049  142.2360  165.8909 C.3     1  UNL1        0.0865
     24 N         142.8809  142.3521  164.6789 N.3     1  UNL1       -0.2890
     25 C         142.3974  143.1021  163.4732 C.3     1  UNL1        0.1479
     26 C         141.0379  143.7359  163.4796 C.3     1  UNL1        0.0974
     27 H         143.0859  141.4013  164.3716 H       1  UNL1        0.1237
     28 C         137.8554  144.0088  163.5608 C.3     1  UNL1        0.0173
     29 C         138.8024  144.2536  164.6980 C.3     1  UNL1        0.0577
     30 C         138.3899  145.1322  165.8416 C.3     1  UNL1        0.0173
@<TRIPOS>BOND
     1    28    29    1
     2    29    30    1
     3    29    21    1
     4    21    22    1
     5    22    23    1
     6    23    24    1
     7    24    25    1
     8    25     1    1
     9     1     2    2
    10     1     3   am
    11     3     4    1
    12     4     5    1
    13     5     6    1
    14     6     7   am
    15     7     8    2
    16     7     9   am
    17     9    13    1
    18    13    14   ar
    19    14    15   ar
    20    15    16   ar
    21    16    17    1
    22    16    18   ar
    23    18    19    1
    24    18    20   ar
    25     6    10    1
    26    10    11    1
    27    25    26    1
    28    26    21    1
    29    11     3    1
    30    20    13   ar
    31    24    27    1
    32     9    12    1
@<TRIPOS>MOLECULE
*****
 30 32 0 0 0
SMALL
GASTEIGER

@<TRIPOS>ATOM
      1 C         143.6008  137.6418  156.2473 C.2     1  UNL1        0.2414
      2 O         144.7856  138.0592  155.4275 O.2     1  UNL1       -0.2734
      3 N         143.0322  138.5762  157.2736 N.am    1  UNL1       -0.2749
      4 C         141.8474  138.1589  158.0934 C.3     1  UNL1        0.1150
      5 C         141.2788  139.0934  159.1198 C.3     1  UNL1        0.1165
      6 N         141.8950  140.4453  159.3264 N.am    1  UNL1       -0.2605
      7 C         141.3265  141.3797  160.3527 C.2     1  UNL1        0.3078
      8 O         141.9427  142.7316  160.5594 O.2     1  UNL1       -0.2522
      9 N         140.1416  140.9623  161.1725 N.am    1  UNL1       -0.2681
     10 C         143.0799  140.8626  158.5066 C.3     1  UNL1        0.1165
     11 C         143.6484  139.9282  157.4803 C.3     1  UNL1        0.1150
     12 H         139.7372  140.0751  161.0369 H       1  UNL1        0.1564
     13 C         139.5731  141.8969  162.1989 C.ar    1  UNL1        0.0525
     14 C         138.3527  142.7087  161.8798 C.ar    1  UNL1        0.0156
     15 C         137.7842  143.6432  162.9061 C.ar    1  UNL1        0.0135
     16 C         138.4359  143.7659  164.2515 C.ar    1  UNL1        0.0683
     17 CL        137.8673  144.7005  165.2779 Cl      1  UNL1       -0.0814
     18 C         139.6562  142.9541  164.5706 C.ar    1  UNL1        0.0694
     19 CL        140.3080  143.0769  165.9161 Cl      1  UNL1       -0.0813
     20 C         140.2248  142.0196  163.5443 C.ar    1  UNL1        0.0270
     21 N         142.9957  133.7250  156.4545 N.3     1  UNL1       -0.2713
     22 C         141.7522  133.5861  155.6274 C.3     1  UNL1        0.0894
     23 C         141.1248  134.7991  155.0069 C.3     1  UNL1        0.0865
     24 N         141.7409  136.1510  155.2135 N.3     1  UNL1       -0.2890
     25 C         142.9845  136.2899  156.0406 C.3     1  UNL1        0.1479
     26 C         143.6119  135.0769  156.6611 C.3     1  UNL1        0.0974
     27 H         141.0290  136.7352  155.6519 H       1  UNL1        0.1237
     28 C         144.8632  132.6517  157.9073 C.3     1  UNL1        0.0173
     29 C         143.6231  132.5120  157.0750 C.3     1  UNL1        0.0577
     30 C         143.0105  131.1593  156.8633 C.3     1  UNL1        0.0173
@<TRIPOS>BOND
     1    28    29    1
     2    29    30    1
     3    29    21    1
     4    21    22    1
     5    22    23    1
     6    23    24    1
     7    24    25    1
     8    25     1    1
     9     1     2    2
    10     1     3   am
    11     3     4    1
    12     4     5    1
    13     5     6    1
    14     6     7   am
    15     7     8    2
    16     7     9   am
    17     9    13    1
    18    13    14   ar
    19    14    15   ar
    20    15    16   ar
    21    16    17    1
    22    16    18   ar
    23    18    19    1
    24    18    20   ar
    25     6    10    1
    26    10    11    1
    27    25    26    1
    28    26    21    1
    29    11     3    1
    30    20    13   ar
    31    24    27    1
    32     9    12    1
@<TRIPOS>MOLECULE
*****
 30 32 0 0 0
SMALL
GASTEIGER

@<TRIPOS>ATOM
      1 C         141.8630  144.5217  159.4887 C.2     1  UNL1        0.2414
      2 O         141.9372  145.7971  158.7028 O.2     1  UNL1       -0.2734
      3 N         141.9065  143.2004  158.7801 N.am    1  UNL1       -0.2749
      4 C         141.8323  141.9249  159.5660 C.3     1  UNL1        0.1150
      5 C         141.8757  140.6036  158.8572 C.3     1  UNL1        0.1165
      6 N         141.9934  140.5578  157.3626 N.am    1  UNL1       -0.2605
      7 C         142.0368  139.2365  156.6539 C.2     1  UNL1        0.3078
      8 O         142.1544  139.1906  155.1592 O.2     1  UNL1       -0.2522
      9 N         141.9626  137.9611  157.4399 N.am    1  UNL1       -0.2681
     10 C         142.0676  141.8332  156.5766 C.3     1  UNL1        0.1165
     11 C         142.0241  143.1545  157.2853 C.3     1  UNL1        0.1150
     12 H         141.8854  137.9911  158.4209 H       1  UNL1        0.1564
     13 C         142.0061  136.6397  156.7311 C.ar    1  UNL1        0.0525
     14 C         140.9741  136.3111  155.6933 C.ar    1  UNL1        0.0156
     15 C         141.0175  134.9898  154.9846 C.ar    1  UNL1        0.0135
     16 C         142.0929  133.9972  155.3136 C.ar    1  UNL1        0.0683
     17 CL        142.1363  132.6759  154.6048 Cl      1  UNL1       -0.0814
     18 C         143.1248  134.3259  156.3514 C.ar    1  UNL1        0.0694
     19 CL        144.2002  133.3332  156.6804 Cl      1  UNL1       -0.0813
     20 C         143.0814  135.6471  157.0602 C.ar    1  UNL1        0.0270
     21 N         140.2768  144.5459  163.1265 N.3     1  UNL1       -0.2713
     22 C         141.5101  144.6593  163.9727 C.3     1  UNL1        0.0894
     23 C         142.8610  144.7268  163.3244 C.3     1  UNL1        0.0865
     24 N         142.9787  144.6810  161.8297 N.3     1  UNL1       -0.2890
     25 C         141.7454  144.5676  160.9835 C.3     1  UNL1        0.1479
     26 C         140.3945  144.5000  161.6319 C.3     1  UNL1        0.0974
     27 H         143.5649  143.8771  161.6050 H       1  UNL1        0.1237
     28 C         137.7420  143.9921  162.9927 C.3     1  UNL1        0.0173
     29 C         138.9259  144.4784  163.7749 C.3     1  UNL1        0.0577
     30 C         138.7588  144.8972  165.2055 C.3     1  UNL1        0.0173
@<TRIPOS>BOND
     1    28    29    1
     2    29    30    1
     3    29    21    1
     4    21    22    1
     5    22    23    1
     6    23    24    1
     7    24    25    1
     8    25     1    1
     9     1     2    2
    10     1     3   am
    11     3     4    1
    12     4     5    1
    13     5     6    1
    14     6     7   am
    15     7     8    2
    16     7     9   am
    17     9    13    1
    18    13    14   ar
    19    14    15   ar
    20    15    16   ar
    21    16    17    1
    22    16    18   ar
    23    18    19    1
    24    18    20   ar
    25     6    10    1
    26    10    11    1
    27    25    26    1
    28    26    21    1
    29    11     3    1
    30    20    13   ar
    31    24    27    1
    32     9    12    1
@<TRIPOS>MOLECULE
*****
 30 32 0 0 0
SMALL
GASTEIGER

@<TRIPOS>ATOM
      1 C         141.5088  140.3761  161.3144 C.2     1  UNL1        0.2414
      2 O         140.5545  139.2194  161.2763 O.2     1  UNL1       -0.2734
      3 N         142.4760  140.5878  160.1877 N.am    1  UNL1       -0.2749
      4 C         143.4302  141.7446  160.2258 C.3     1  UNL1        0.1150
      5 C         144.3975  141.9563  159.0990 C.3     1  UNL1        0.1165
      6 N         144.4105  141.0113  157.9341 N.am    1  UNL1       -0.2605
      7 C         145.3778  141.2231  156.8074 C.2     1  UNL1        0.3078
      8 O         145.3908  140.2781  155.6425 O.2     1  UNL1       -0.2522
      9 N         146.3320  142.3798  156.8455 N.am    1  UNL1       -0.2681
     10 C         143.4563  139.8546  157.8961 C.3     1  UNL1        0.1165
     11 C         142.4890  139.6429  159.0228 C.3     1  UNL1        0.1150
     12 H         146.3235  143.0000  157.6100 H       1  UNL1        0.1564
     13 C         147.2993  142.5915  155.7187 C.ar    1  UNL1        0.0525
     14 C         146.9320  143.4880  154.5735 C.ar    1  UNL1        0.0156
     15 C         147.8992  143.6998  153.4468 C.ar    1  UNL1        0.0135
     16 C         149.2336  143.0150  153.4652 C.ar    1  UNL1        0.0683
     17 CL        150.2009  143.2267  152.3383 Cl      1  UNL1       -0.0814
     18 C         149.6009  142.1185  154.6103 C.ar    1  UNL1        0.0694
     19 CL        150.9354  141.4337  154.6287 Cl      1  UNL1       -0.0813
     20 C         148.6337  141.9067  155.7371 C.ar    1  UNL1        0.0270
     21 N         140.5038  143.4022  163.6773 N.3     1  UNL1       -0.2713
     22 C         141.4696  143.2110  164.8089 C.3     1  UNL1        0.0894
     23 C         142.4484  142.0749  164.7758 C.3     1  UNL1        0.0865
     24 N         142.4615  141.1299  163.6110 N.3     1  UNL1       -0.2890
     25 C         141.4957  141.3211  162.4793 C.3     1  UNL1        0.1479
     26 C         140.5169  142.4572  162.5124 C.3     1  UNL1        0.0974
     27 H         142.2935  140.1967  163.9870 H       1  UNL1        0.1237
     28 C         138.8539  144.9128  164.9986 C.3     1  UNL1        0.0173
     29 C         139.5250  144.5383  163.7104 C.3     1  UNL1        0.0577
     30 C         139.2172  145.2999  162.4554 C.3     1  UNL1        0.0173
@<TRIPOS>BOND
     1    28    29    1
     2    29    30    1
     3    29    21    1
     4    21    22    1
     5    22    23    1
     6    23    24    1
     7    24    25    1
     8    25     1    1
     9     1     2    2
    10     1     3   am
    11     3     4    1
    12     4     5    1
    13     5     6    1
    14     6     7   am
    15     7     8    2
    16     7     9   am
    17     9    13    1
    18    13    14   ar
    19    14    15   ar
    20    15    16   ar
    21    16    17    1
    22    16    18   ar
    23    18    19    1
    24    18    20   ar
    25     6    10    1
    26    10    11    1
    27    25    26    1
    28    26    21    1
    29    11     3    1
    30    20    13   ar
    31    24    27    1
    32     9    12    1
@<TRIPOS>MOLECULE
*****
 30 32 0 0 0
SMALL
GASTEIGER

@<TRIPOS>ATOM
      1 C         143.0225  143.6765  162.4505 C.2     1  UNL1        0.2414
      2 O         144.0860  144.7344  162.4518 O.2     1  UNL1       -0.2734
      3 N         143.0230  142.6139  161.3919 N.am    1  UNL1       -0.2749
      4 C         141.9596  141.5561  161.3906 C.3     1  UNL1        0.1150
      5 C         141.9601  140.4934  160.3319 C.3     1  UNL1        0.1165
      6 N         143.0240  140.4886  159.2745 N.am    1  UNL1       -0.2605
      7 C         143.0245  139.4260  158.2159 C.2     1  UNL1        0.3078
      8 O         144.0884  139.4212  157.1585 O.2     1  UNL1       -0.2522
      9 N         141.9610  138.3681  158.2146 N.am    1  UNL1       -0.2681
     10 C         144.0874  141.5465  159.2758 C.3     1  UNL1        0.1165
     11 C         144.0870  142.6091  160.3345 C.3     1  UNL1        0.1150
     12 H         141.2627  138.3713  158.9086 H       1  UNL1        0.1564
     13 C         141.9615  137.3055  157.1559 C.ar    1  UNL1        0.0525
     14 C         141.0117  137.3992  155.9987 C.ar    1  UNL1        0.0156
     15 C         141.0122  136.3367  154.9400 C.ar    1  UNL1        0.0135
     16 C         141.9624  135.1803  155.0385 C.ar    1  UNL1        0.0683
     17 CL        141.9630  134.1176  153.9798 Cl      1  UNL1       -0.0814
     18 C         142.9122  135.0865  156.1957 C.ar    1  UNL1        0.0694
     19 CL        143.8626  133.9301  156.2941 Cl      1  UNL1       -0.0813
     20 C         142.9118  136.1491  157.2544 C.ar    1  UNL1        0.0270
     21 N         141.1375  142.9996  165.8767 N.3     1  UNL1       -0.2713
     22 C         139.8308  143.6909  165.6227 C.3     1  UNL1        0.0894
     23 C         139.5880  144.3775  164.3114 C.3     1  UNL1        0.0865
     24 N         140.6519  144.3727  163.2540 N.3     1  UNL1       -0.2890
     25 C         141.9586  143.6814  163.5079 C.3     1  UNL1        0.1479
     26 C         142.2014  142.9948  164.8193 C.3     1  UNL1        0.0974
     27 H         140.8696  145.3483  163.0508 H       1  UNL1        0.1237
     28 C         140.5838  142.7032  168.3977 C.3     1  UNL1        0.0173
     29 C         141.3803  142.3130  167.1880 C.3     1  UNL1        0.0577
     30 C         142.4196  141.2362  167.2897 C.3     1  UNL1        0.0173
@<TRIPOS>BOND
     1    28    29    1
     2    29    30    1
     3    29    21    1
     4    21    22    1
     5    22    23    1
     6    23    24    1
     7    24    25    1
     8    25     1    1
     9     1     2    2
    10     1     3   am
    11     3     4    1
    12     4     5    1
    13     5     6    1
    14     6     7   am
    15     7     8    2
    16     7     9   am
    17     9    13    1
    18    13    14   ar
    19    14    15   ar
    20    15    16   ar
    21    16    17    1
    22    16    18   ar
    23    18    19    1
    24    18    20   ar
    25     6    10    1
    26    10    11    1
    27    25    26    1
    28    26    21    1
    29    11     3    1
    30    20    13   ar
    31    24    27    1
    32     9    12    1
@<TRIPOS>MOLECULE
*****
 30 32 0 0 0
SMALL
GASTEIGER

@<TRIPOS>ATOM
      1 C         142.5007  142.4264  160.0837 C.2     1  UNL1        0.2414
      2 O         142.9845  143.7482  159.5653 O.2     1  UNL1       -0.2734
      3 N         142.6596  141.1899  159.2495 N.am    1  UNL1       -0.2749
      4 C         142.1759  139.8681  159.7680 C.3     1  UNL1        0.1150
      5 C         142.3348  138.6316  158.9337 C.3     1  UNL1        0.1165
      6 N         142.9774  138.7170  157.5810 N.am    1  UNL1       -0.2605
      7 C         143.1363  137.4806  156.7468 C.2     1  UNL1        0.3078
      8 O         143.7790  137.5660  155.3941 O.2     1  UNL1       -0.2522
      9 N         142.6526  136.1588  157.2653 N.am    1  UNL1       -0.2681
     10 C         143.4611  140.0389  157.0626 C.3     1  UNL1        0.1165
     11 C         143.3023  141.2753  157.8968 C.3     1  UNL1        0.1150
     12 H         142.2308  136.1027  158.1531 H       1  UNL1        0.1564
     13 C         142.8115  134.9223  156.4310 C.ar    1  UNL1        0.0525
     14 C         141.8905  134.6754  155.2731 C.ar    1  UNL1        0.0156
     15 C         142.0494  133.4390  154.4388 C.ar    1  UNL1        0.0135
     16 C         143.1292  132.4495  154.7624 C.ar    1  UNL1        0.0683
     17 CL        143.2881  131.2131  153.9282 Cl      1  UNL1       -0.0814
     18 C         144.0502  132.6965  155.9204 C.ar    1  UNL1        0.0694
     19 CL        145.1301  131.7069  156.2440 Cl      1  UNL1       -0.0813
     20 C         143.8914  133.9328  156.7546 C.ar    1  UNL1        0.0270
     21 N         139.7391  142.4783  162.9334 N.3     1  UNL1       -0.2713
     22 C         140.5727  142.1704  164.1417 C.3     1  UNL1        0.0894
     23 C         142.0491  141.9477  163.9974 C.3     1  UNL1        0.0865
     24 N         142.6918  142.0331  162.6448 N.3     1  UNL1       -0.2890
     25 C         141.8581  142.3410  161.4365 C.3     1  UNL1        0.1479
     26 C         140.3817  142.5637  161.5808 C.3     1  UNL1        0.0974
     27 H         143.1374  141.1318  162.4731 H       1  UNL1        0.1237
     28 C         137.3245  141.5307  163.0802 C.3     1  UNL1        0.0173
     29 C         138.2627  142.7009  163.0777 C.3     1  UNL1        0.0577
     30 C         137.7246  144.0939  163.2196 C.3     1  UNL1        0.0173
@<TRIPOS>BOND
     1    28    29    1
     2    29    30    1
     3    29    21    1
     4    21    22    1
     5    22    23    1
     6    23    24    1
     7    24    25    1
     8    25     1    1
     9     1     2    2
    10     1     3   am
    11     3     4    1
    12     4     5    1
    13     5     6    1
    14     6     7   am
    15     7     8    2
    16     7     9   am
    17     9    13    1
    18    13    14   ar
    19    14    15   ar
    20    15    16   ar
    21    16    17    1
    22    16    18   ar
    23    18    19    1
    24    18    20   ar
    25     6    10    1
    26    10    11    1
    27    25    26    1
    28    26    21    1
    29    11     3    1
    30    20    13   ar
    31    24    27    1
    32     9    12    1
@<TRIPOS>MOLECULE
*****
 30 32 0 0 0
SMALL
GASTEIGER

@<TRIPOS>ATOM
      1 C         141.8054  142.9169  158.9650 C.2     1  UNL1        0.2414
      2 O         142.4745  144.1510  158.4364 O.2     1  UNL1       -0.2734
      3 N         142.1916  141.5684  158.4337 N.am    1  UNL1       -0.2749
      4 C         141.5225  140.3343  158.9624 C.3     1  UNL1        0.1150
      5 C         141.9087  138.9857  158.4311 C.3     1  UNL1        0.1165
      6 N         142.9640  138.8712  157.3712 N.am    1  UNL1       -0.2605
      7 C         143.3501  137.5227  156.8400 C.2     1  UNL1        0.3078
      8 O         144.4054  137.4081  155.7801 O.2     1  UNL1       -0.2522
      9 N         142.6810  136.2886  157.3686 N.am    1  UNL1       -0.2681
     10 C         143.6330  140.1053  156.8426 C.3     1  UNL1        0.1165
     11 C         143.2469  141.4538  157.3738 C.3     1  UNL1        0.1150
     12 H         141.9884  136.3638  158.0642 H       1  UNL1        0.1564
     13 C         143.0672  134.9400  156.8373 C.ar    1  UNL1        0.0525
     14 C         142.5678  134.4912  155.4960 C.ar    1  UNL1        0.0156
     15 C         142.9540  133.1427  154.9647 C.ar    1  UNL1        0.0135
     16 C         143.8395  132.2430  155.7747 C.ar    1  UNL1        0.0683
     17 CL        144.2258  130.8944  155.2435 Cl      1  UNL1       -0.0814
     18 C         144.3390  132.6918  157.1161 C.ar    1  UNL1        0.0694
     19 CL        145.2246  131.7920  157.9261 Cl      1  UNL1       -0.0813
     20 C         143.9528  134.0403  157.6474 C.ar    1  UNL1        0.0270
     21 N         139.9943  143.8653  162.3665 N.3     1  UNL1       -0.2713
     22 C         138.6397  143.2606  162.1446 C.3     1  UNL1        0.0894
     23 C         138.3403  142.5414  160.8628 C.3     1  UNL1        0.0865
     24 N         139.3955  142.4268  159.8029 N.3     1  UNL1       -0.2890
     25 C         140.7501  143.0315  160.0249 C.3     1  UNL1        0.1479
     26 C         141.0495  143.7508  161.3067 C.3     1  UNL1        0.0974
     27 H         139.0149  142.8582  158.9606 H       1  UNL1        0.1237
     28 C         139.2189  144.7572  164.6802 C.3     1  UNL1        0.0173
     29 C         140.2937  144.5846  163.6483 C.3     1  UNL1        0.0577
     30 C         141.6680  145.1313  163.8982 C.3     1  UNL1        0.0173
@<TRIPOS>BOND
     1    28    29    1
     2    29    30    1
     3    29    21    1
     4    21    22    1
     5    22    23    1
     6    23    24    1
     7    24    25    1
     8    25     1    1
     9     1     2    2
    10     1     3   am
    11     3     4    1
    12     4     5    1
    13     5     6    1
    14     6     7   am
    15     7     8    2
    16     7     9   am
    17     9    13    1
    18    13    14   ar
    19    14    15   ar
    20    15    16   ar
    21    16    17    1
    22    16    18   ar
    23    18    19    1
    24    18    20   ar
    25     6    10    1
    26    10    11    1
    27    25    26    1
    28    26    21    1
    29    11     3    1
    30    20    13   ar
    31    24    27    1
    32     9    12    1
@<TRIPOS>MOLECULE
*****
 30 32 0 0 0
SMALL
GASTEIGER

@<TRIPOS>ATOM
      1 C         138.9735  140.1124  165.5382 C.2     1  UNL1        0.2414
      2 O         137.7358  139.3530  165.9143 O.2     1  UNL1       -0.2734
      3 N         139.0609  140.7900  164.2029 N.am    1  UNL1       -0.2749
      4 C         140.2986  141.5494  163.8268 C.3     1  UNL1        0.1150
      5 C         140.3860  142.2270  162.4913 C.3     1  UNL1        0.1165
      6 N         139.2358  142.1451  161.5321 N.am    1  UNL1       -0.2605
      7 C         139.3232  142.8227  160.1967 C.2     1  UNL1        0.3078
      8 O         138.1729  142.7409  159.2374 O.2     1  UNL1       -0.2522
      9 N         140.5609  143.5821  159.8206 N.am    1  UNL1       -0.2681
     10 C         137.9981  141.3857  161.9082 C.3     1  UNL1        0.1165
     11 C         137.9106  140.7081  163.2435 C.3     1  UNL1        0.1150
     12 H         141.3158  143.6359  160.4503 H       1  UNL1        0.1564
     13 C         140.6483  144.2597  158.4852 C.ar    1  UNL1        0.0525
     14 C         140.1795  145.6762  158.3308 C.ar    1  UNL1        0.0156
     15 C         140.2669  146.3538  156.9955 C.ar    1  UNL1        0.0135
     16 C         140.8231  145.6149  155.8145 C.ar    1  UNL1        0.0683
     17 CL        140.9105  146.2925  154.4791 Cl      1  UNL1       -0.0814
     18 C         141.2918  144.1985  155.9689 C.ar    1  UNL1        0.0694
     19 CL        141.8480  143.4596  154.7879 Cl      1  UNL1       -0.0813
     20 C         141.2044  143.5209  157.3043 C.ar    1  UNL1        0.0270
     21 N         141.2135  141.2195  168.6215 N.3     1  UNL1       -0.2713
     22 C         142.4241  140.3579  168.4162 C.3     1  UNL1        0.0894
     23 C         142.4845  139.4145  167.2516 C.3     1  UNL1        0.0865
     24 N         141.3343  139.3326  166.2923 N.3     1  UNL1       -0.2890
     25 C         140.1237  140.1942  166.4975 C.3     1  UNL1        0.1479
     26 C         140.0634  141.1377  167.6621 C.3     1  UNL1        0.0974
     27 H         141.0119  138.3650  166.3010 H       1  UNL1        0.1237
     28 C         140.5282  143.5168  169.6229 C.3     1  UNL1        0.0173
     29 C         141.1532  142.1630  169.7861 C.3     1  UNL1        0.0577
     30 C         141.7177  141.7526  171.1138 C.3     1  UNL1        0.0173
@<TRIPOS>BOND
     1    28    29    1
     2    29    30    1
     3    29    21    1
     4    21    22    1
     5    22    23    1
     6    23    24    1
     7    24    25    1
     8    25     1    1
     9     1     2    2
    10     1     3   am
    11     3     4    1
    12     4     5    1
    13     5     6    1
    14     6     7   am
    15     7     8    2
    16     7     9   am
    17     9    13    1
    18    13    14   ar
    19    14    15   ar
    20    15    16   ar
    21    16    17    1
    22    16    18   ar
    23    18    19    1
    24    18    20   ar
    25     6    10    1
    26    10    11    1
    27    25    26    1
    28    26    21    1
    29    11     3    1
    30    20    13   ar
    31    24    27    1
    32     9    12    1
