@<TRIPOS>MOLECULE
*****
 31 36 0 0 0
SMALL
GASTEIGER

@<TRIPOS>ATOM
      1 C         139.8740  140.6008  166.7142 C.ar    1  UNL1        0.0036
      2 C         140.1689  139.2142  166.2236 C.ar    1  UNL1        0.0032
      3 C         139.9075  138.8541  164.7912 C.ar    1  UNL1        0.0366
      4 C         139.3512  139.8804  163.8492 C.ar    1  UNL1        0.1360
      5 C         139.0563  141.2669  164.3398 C.ar    1  UNL1        0.0357
      6 C         139.3177  141.6271  165.7723 C.ar    1  UNL1        0.0008
      7 C         138.5000  142.2932  163.3979 C.3     1  UNL1        0.1580
      8 C         137.9447  143.4193  162.5772 C.3     1  UNL1        0.2351
      9 O         137.8101  144.6192  163.4674 O.2     1  UNL1       -0.4478
     10 C         138.2821  144.2346  164.8382 C.2     1  UNL1        0.2770
     11 N         138.3210  145.1302  166.0408 N.pl3   1  UNL1       -0.3133
     12 N         138.7085  142.7971  164.7953 N.2     1  UNL1       -0.2202
     13 C         138.2386  141.9330  161.9654 C.3     1  UNL1        0.1141
     14 C         138.3938  141.6467  162.2282 C.3     1  UNL1        0.1501
     15 O         138.2307  141.9477  161.9520 O.3     1  UNL1       -0.3532
     16 C         138.3938  141.6467  162.2282 C.3     1  UNL1        0.1501
     17 C         138.5336  140.5466  161.4749 C.3     1  UNL1        0.1395
     18 C         138.0012  141.2769  160.2777 C.3     1  UNL1        0.0404
     19 C         138.1639  140.0372  159.4490 C.3     1  UNL1        0.0072
     20 C         138.6963  139.3069  160.6462 C.3     1  UNL1        0.0404
     21 O         139.0899  139.5203  162.4168 O.3     1  UNL1       -0.4826
     22 H         138.0181  146.0642  165.9690 H       1  UNL1        0.1466
     23 H         138.6494  144.7840  166.9019 H       1  UNL1        0.1466
     24 C         142.6834  143.1333  170.2769 C.3     1  UNL1        0.0327
     25 C         141.5401  142.2272  169.9280 C.ar    1  UNL1       -0.0025
     26 C         140.6581  141.6812  171.0116 C.ar    1  UNL1        0.0970
     27 N         139.5148  140.7751  170.6627 N.ar    1  UNL1       -0.2168
     28 C         139.2534  140.4149  169.2302 C.ar    1  UNL1        0.2222
     29 F         138.1100  139.5089  168.8813 F       1  UNL1       -0.1832
     30 C         140.1353  140.9609  168.1466 C.ar    1  UNL1        0.0457
     31 C         141.2787  141.8670  168.4956 C.ar    1  UNL1        0.0011
@<TRIPOS>BOND
     1    24    25    1
     2    25    26   ar
     3    26    27   ar
     4    27    28   ar
     5    28    29    1
     6    28    30   ar
     7    30     1    1
     8     1     2   ar
     9     2     3   ar
    10     3     4   ar
    11     4     5   ar
    12     5     6   ar
    13     5     7    1
    14     7     8    1
    15     8     9    1
    16     9    10    1
    17    10    11    1
    18    10    12    2
    19     7    13    1
    20    13    14    1
    21    14    15    1
    22    15    16    1
    23    13    17    1
    24    17    18    1
    25    18    19    1
    26    19    20    1
    27    17    21    1
    28    30    31   ar
    29    31    25   ar
    30     6     1   ar
    31    12     7    1
    32    16    13    1
    33    20    17    1
    34    21     4    1
    35    11    22    1
    36    11    23    1
@<TRIPOS>MOLECULE
*****
 31 36 0 0 0
SMALL
GASTEIGER

@<TRIPOS>ATOM
      1 C         141.5580  143.4455  163.7053 C.ar    1  UNL1        0.0036
      2 C         142.8590  143.8149  164.3544 C.ar    1  UNL1        0.0032
      3 C         143.2478  143.1925  165.6625 C.ar    1  UNL1        0.0366
      4 C         142.3358  142.2007  166.3217 C.ar    1  UNL1        0.1360
      5 C         141.0349  141.8313  165.6728 C.ar    1  UNL1        0.0357
      6 C         140.6460  142.4537  164.3645 C.ar    1  UNL1        0.0008
      7 C         140.1229  140.8395  166.3320 C.3     1  UNL1        0.1580
      8 C         139.1138  139.8684  166.8694 C.3     1  UNL1        0.2351
      9 O         137.9699  139.8050  165.9011 O.2     1  UNL1       -0.4478
     10 C         138.2719  140.7370  164.7653 C.2     1  UNL1        0.2770
     11 N         137.3971  140.9859  163.5726 N.pl3   1  UNL1       -0.3133
     12 N         139.6025  141.3763  165.0315 N.2     1  UNL1       -0.2202
     13 C         140.5117  140.2171  167.6401 C.3     1  UNL1        0.1141
     14 C         140.7662  140.4938  167.4562 C.3     1  UNL1        0.1501
     15 O         140.4987  140.2030  167.6495 O.3     1  UNL1       -0.3532
     16 C         140.7662  140.4938  167.4562 C.3     1  UNL1        0.1501
     17 C         141.8126  140.5865  168.2891 C.3     1  UNL1        0.1395
     18 C         141.1842  139.5907  169.2184 C.3     1  UNL1        0.0404
     19 C         142.3626  139.7063  170.1393 C.3     1  UNL1        0.0072
     20 C         142.9910  140.7021  169.2100 C.3     1  UNL1        0.0404
     21 O         142.7246  141.5783  167.6299 O.3     1  UNL1       -0.4826
     22 H         136.5364  140.5156  163.4867 H       1  UNL1        0.1466
     23 H         137.6835  141.6196  162.8757 H       1  UNL1        0.1466
     24 C         142.3114  144.0235  158.5967 C.3     1  UNL1        0.0327
     25 C         141.5459  144.3569  159.8428 C.ar    1  UNL1       -0.0025
     26 C         140.3915  145.3127  159.7807 C.ar    1  UNL1        0.0970
     27 N         139.6260  145.6461  161.0267 N.ar    1  UNL1       -0.2168
     28 C         140.0148  145.0237  162.3350 C.ar    1  UNL1        0.2222
     29 F         139.2492  145.3571  163.5811 F       1  UNL1       -0.1832
     30 C         141.1692  144.0679  162.3971 C.ar    1  UNL1        0.0457
     31 C         141.9347  143.7345  161.1510 C.ar    1  UNL1        0.0011
@<TRIPOS>BOND
     1    24    25    1
     2    25    26   ar
     3    26    27   ar
     4    27    28   ar
     5    28    29    1
     6    28    30   ar
     7    30     1    1
     8     1     2   ar
     9     2     3   ar
    10     3     4   ar
    11     4     5   ar
    12     5     6   ar
    13     5     7    1
    14     7     8    1
    15     8     9    1
    16     9    10    1
    17    10    11    1
    18    10    12    2
    19     7    13    1
    20    13    14    1
    21    14    15    1
    22    15    16    1
    23    13    17    1
    24    17    18    1
    25    18    19    1
    26    19    20    1
    27    17    21    1
    28    30    31   ar
    29    31    25   ar
    30     6     1   ar
    31    12     7    1
    32    16    13    1
    33    20    17    1
    34    21     4    1
    35    11    22    1
    36    11    23    1
@<TRIPOS>MOLECULE
*****
 31 36 0 0 0
SMALL
GASTEIGER

@<TRIPOS>ATOM
      1 C         141.6929  141.0816  167.3125 C.ar    1  UNL1        0.0036
      2 C         143.0047  141.6046  166.8066 C.ar    1  UNL1        0.0032
      3 C         143.5513  141.1182  165.4972 C.ar    1  UNL1        0.0366
      4 C         142.7863  140.1087  164.6937 C.ar    1  UNL1        0.1360
      5 C         141.4747  139.5856  165.1995 C.ar    1  UNL1        0.0357
      6 C         140.9280  140.0721  166.5089 C.ar    1  UNL1        0.0008
      7 C         140.7097  138.5761  164.3959 C.3     1  UNL1        0.1580
      8 C         139.8367  137.5700  163.7063 C.3     1  UNL1        0.2351
      9 O         138.6281  137.3393  164.5644 O.2     1  UNL1       -0.4478
     10 C         138.7541  138.2030  165.7843 C.2     1  UNL1        0.2770
     11 N         137.7671  138.2874  166.9106 N.pl3   1  UNL1       -0.3133
     12 N         140.0406  138.9674  165.6803 N.2     1  UNL1       -0.2202
     13 C         141.2563  138.0897  163.0866 C.3     1  UNL1        0.1141
     14 C         141.4698  138.3714  163.3107 C.3     1  UNL1        0.1501
     15 O         141.2454  138.0753  163.0751 O.3     1  UNL1       -0.3532
     16 C         141.4698  138.3714  163.3107 C.3     1  UNL1        0.1501
     17 C         142.5680  138.6128  162.5807 C.3     1  UNL1        0.1395
     18 C         142.1068  137.6432  161.5332 C.3     1  UNL1        0.0404
     19 C         143.3411  137.9249  160.7289 C.3     1  UNL1        0.0072
     20 C         143.8023  138.8945  161.7763 C.3     1  UNL1        0.0404
     21 O         143.3330  139.6223  163.3843 O.3     1  UNL1       -0.4826
     22 H         136.9470  137.7433  166.8882 H       1  UNL1        0.1466
     23 H         137.9394  138.8871  167.6722 H       1  UNL1        0.1466
     24 C         139.9004  144.9507  170.2817 C.3     1  UNL1        0.0327
     25 C         140.2500  143.5026  170.1065 C.ar    1  UNL1       -0.0025
     26 C         140.0530  142.5409  171.2407 C.ar    1  UNL1        0.0970
     27 N         140.4026  141.0928  171.0655 N.ar    1  UNL1       -0.2168
     28 C         140.9492  140.6063  169.7560 C.ar    1  UNL1        0.2222
     29 F         141.2988  139.1582  169.5808 F       1  UNL1       -0.1832
     30 C         141.1463  141.5680  168.6219 C.ar    1  UNL1        0.0457
     31 C         140.7967  143.0161  168.7971 C.ar    1  UNL1        0.0011
@<TRIPOS>BOND
     1    24    25    1
     2    25    26   ar
     3    26    27   ar
     4    27    28   ar
     5    28    29    1
     6    28    30   ar
     7    30     1    1
     8     1     2   ar
     9     2     3   ar
    10     3     4   ar
    11     4     5   ar
    12     5     6   ar
    13     5     7    1
    14     7     8    1
    15     8     9    1
    16     9    10    1
    17    10    11    1
    18    10    12    2
    19     7    13    1
    20    13    14    1
    21    14    15    1
    22    15    16    1
    23    13    17    1
    24    17    18    1
    25    18    19    1
    26    19    20    1
    27    17    21    1
    28    30    31   ar
    29    31    25   ar
    30     6     1   ar
    31    12     7    1
    32    16    13    1
    33    20    17    1
    34    21     4    1
    35    11    22    1
    36    11    23    1
@<TRIPOS>MOLECULE
*****
 31 36 0 0 0
SMALL
GASTEIGER

@<TRIPOS>ATOM
      1 C         142.5694  140.8251  163.6155 C.ar    1  UNL1        0.0036
      2 C         143.3922  141.8460  164.3442 C.ar    1  UNL1        0.0032
      3 C         143.0553  142.2090  165.7600 C.ar    1  UNL1        0.0366
      4 C         141.8955  141.5513  166.4472 C.ar    1  UNL1        0.1360
      5 C         141.0727  140.5305  165.7186 C.ar    1  UNL1        0.0357
      6 C         141.4096  140.1674  164.3027 C.ar    1  UNL1        0.0008
      7 C         139.9129  139.8728  166.4059 C.3     1  UNL1        0.1580
      8 C         138.7301  139.1351  166.9599 C.3     1  UNL1        0.2351
      9 O         138.2145  138.2168  165.8917 O.2     1  UNL1       -0.4478
     10 C         139.0786  138.3869  164.6775 C.2     1  UNL1        0.2770
     11 N         138.9209  137.6611  163.3744 N.pl3   1  UNL1       -0.3133
     12 N         140.1283  139.4104  164.9952 N.2     1  UNL1       -0.2202
     13 C         139.5759  140.2358  167.8217 C.3     1  UNL1        0.1141
     14 C         139.8995  140.4193  167.6300 C.3     1  UNL1        0.1501
     15 O         139.5594  140.2265  167.8315 O.3     1  UNL1       -0.3532
     16 C         139.8995  140.4193  167.6300 C.3     1  UNL1        0.1501
     17 C         140.3988  141.2566  168.5503 C.3     1  UNL1        0.1395
     18 C         139.3511  140.8281  169.5346 C.3     1  UNL1        0.0404
     19 C         139.9222  141.7701  170.5527 C.3     1  UNL1        0.0072
     20 C         140.9699  142.1986  169.5684 C.3     1  UNL1        0.0404
     21 O         141.5585  141.9143  167.8631 O.3     1  UNL1       -0.4826
     22 H         138.1968  137.0036  163.2616 H       1  UNL1        0.1466
     23 H         139.5414  137.8422  162.6318 H       1  UNL1        0.1466
     24 C         141.9416  141.5605  158.5102 C.3     1  UNL1        0.0327
     25 C         142.5924  140.8298  159.6470 C.ar    1  UNL1       -0.0025
     26 C         143.5802  139.7360  159.3679 C.ar    1  UNL1        0.0970
     27 N         144.2311  139.0053  160.5047 N.ar    1  UNL1       -0.2168
     28 C         143.8942  139.3683  161.9207 C.ar    1  UNL1        0.2222
     29 F         144.5450  138.6376  163.0575 F       1  UNL1       -0.1832
     30 C         142.9063  140.4621  162.1997 C.ar    1  UNL1        0.0457
     31 C         142.2555  141.1928  161.0628 C.ar    1  UNL1        0.0011
@<TRIPOS>BOND
     1    24    25    1
     2    25    26   ar
     3    26    27   ar
     4    27    28   ar
     5    28    29    1
     6    28    30   ar
     7    30     1    1
     8     1     2   ar
     9     2     3   ar
    10     3     4   ar
    11     4     5   ar
    12     5     6   ar
    13     5     7    1
    14     7     8    1
    15     8     9    1
    16     9    10    1
    17    10    11    1
    18    10    12    2
    19     7    13    1
    20    13    14    1
    21    14    15    1
    22    15    16    1
    23    13    17    1
    24    17    18    1
    25    18    19    1
    26    19    20    1
    27    17    21    1
    28    30    31   ar
    29    31    25   ar
    30     6     1   ar
    31    12     7    1
    32    16    13    1
    33    20    17    1
    34    21     4    1
    35    11    22    1
    36    11    23    1
@<TRIPOS>MOLECULE
*****
 31 36 0 0 0
SMALL
GASTEIGER

@<TRIPOS>ATOM
      1 C         140.6395  141.6038  166.5453 C.ar    1  UNL1        0.0036
      2 C         139.3170  141.0920  166.0560 C.ar    1  UNL1        0.0032
      3 C         138.8888  141.3518  164.6422 C.ar    1  UNL1        0.0366
      4 C         139.7829  142.1235  163.7175 C.ar    1  UNL1        0.1360
      5 C         141.1053  142.6354  164.2067 C.ar    1  UNL1        0.0357
      6 C         141.5336  142.3755  165.6206 C.ar    1  UNL1        0.0008
      7 C         141.9994  143.4071  163.2820 C.3     1  UNL1        0.1580
      8 C         142.9943  144.1898  162.4773 C.3     1  UNL1        0.2351
      9 O         144.1689  144.4926  163.3598 O.2     1  UNL1       -0.4478
     10 C         143.8999  143.8970  164.7099 C.2     1  UNL1        0.2770
     11 N         144.8116  143.9611  165.8993 N.pl3   1  UNL1       -0.3133
     12 N         142.5591  143.2262  164.6619 N.2     1  UNL1       -0.2202
     13 C         141.5711  143.6670  161.8682 C.3     1  UNL1        0.1141
     14 C         141.3217  143.4517  162.1262 C.3     1  UNL1        0.1501
     15 O         141.5839  143.6780  161.8550 O.3     1  UNL1       -0.3532
     16 C         141.3217  143.4517  162.1262 C.3     1  UNL1        0.1501
     17 C         140.2488  143.1551  161.3790 C.3     1  UNL1        0.1395
     18 C         140.8508  143.8629  160.2014 C.3     1  UNL1        0.0404
     19 C         139.6431  143.5226  159.3794 C.3     1  UNL1        0.0072
     20 C         139.0411  142.8148  160.5570 C.3     1  UNL1        0.0404
     21 O         139.3547  142.3834  162.3037 O.3     1  UNL1       -0.4826
     22 H         145.6763  144.4270  165.8322 H       1  UNL1        0.1466
     23 H         144.5453  143.5372  166.7470 H       1  UNL1        0.1466
     24 C         142.7890  138.4746  170.0931 C.3     1  UNL1        0.0327
     25 C         142.1425  139.7793  169.7331 C.ar    1  UNL1       -0.0025
     26 C         141.9242  140.8242  170.7869 C.ar    1  UNL1        0.0970
     27 N         141.2777  142.1289  170.4269 N.ar    1  UNL1       -0.2168
     28 C         140.8494  142.3888  169.0130 C.ar    1  UNL1        0.2222
     29 F         140.2029  143.6936  168.6530 F       1  UNL1       -0.1832
     30 C         141.0677  141.3440  167.9592 C.ar    1  UNL1        0.0457
     31 C         141.7142  140.0392  168.3192 C.ar    1  UNL1        0.0011
@<TRIPOS>BOND
     1    24    25    1
     2    25    26   ar
     3    26    27   ar
     4    27    28   ar
     5    28    29    1
     6    28    30   ar
     7    30     1    1
     8     1     2   ar
     9     2     3   ar
    10     3     4   ar
    11     4     5   ar
    12     5     6   ar
    13     5     7    1
    14     7     8    1
    15     8     9    1
    16     9    10    1
    17    10    11    1
    18    10    12    2
    19     7    13    1
    20    13    14    1
    21    14    15    1
    22    15    16    1
    23    13    17    1
    24    17    18    1
    25    18    19    1
    26    19    20    1
    27    17    21    1
    28    30    31   ar
    29    31    25   ar
    30     6     1   ar
    31    12     7    1
    32    16    13    1
    33    20    17    1
    34    21     4    1
    35    11    22    1
    36    11    23    1
@<TRIPOS>MOLECULE
*****
 31 36 0 0 0
SMALL
GASTEIGER

@<TRIPOS>ATOM
      1 C         142.0447  141.7642  166.4413 C.ar    1  UNL1        0.0036
      2 C         143.1869  140.9384  165.9277 C.ar    1  UNL1        0.0032
      3 C         143.6092  141.0526  164.4929 C.ar    1  UNL1        0.0366
      4 C         142.8896  141.9927  163.5718 C.ar    1  UNL1        0.1360
      5 C         141.7476  142.8184  164.0854 C.ar    1  UNL1        0.0357
      6 C         141.3251  142.7042  165.5202 C.ar    1  UNL1        0.0008
      7 C         141.0279  143.7584  163.1643 C.3     1  UNL1        0.1580
      8 C         140.2178  144.7362  162.3657 C.3     1  UNL1        0.2351
      9 O         139.1846  145.3335  163.2746 O.2     1  UNL1       -0.4478
     10 C         139.3562  144.7249  164.6347 C.2     1  UNL1        0.2770
     11 N         138.5331  145.0351  165.8497 N.pl3   1  UNL1       -0.3133
     12 N         140.4954  143.7514  164.5666 N.2     1  UNL1       -0.2202
     13 C         141.4503  143.8727  161.7295 C.3     1  UNL1        0.1141
     14 C         141.6511  143.6104  161.9865 C.3     1  UNL1        0.1501
     15 O         141.4400  143.8861  161.7164 O.3     1  UNL1       -0.3532
     16 C         141.6511  143.6104  161.9865 C.3     1  UNL1        0.1501
     17 C         142.5924  143.0469  161.2159 C.3     1  UNL1        0.1395
     18 C         142.1310  143.8486  160.0350 C.3     1  UNL1        0.0404
     19 C         143.1898  143.2085  159.1868 C.3     1  UNL1        0.0072
     20 C         143.6511  142.4069  160.3678 C.3     1  UNL1        0.0404
     21 O         143.3120  142.1069  162.1371 O.3     1  UNL1       -0.4826
     22 H         137.8025  145.6927  165.7946 H       1  UNL1        0.1466
     23 H         138.7235  144.5812  166.7023 H       1  UNL1        0.1466
     24 C         138.5392  140.3332  169.9999 C.3     1  UNL1        0.0327
     25 C         139.8696  140.9344  169.6554 C.ar    1  UNL1       -0.0025
     26 C         140.7775  141.4214  170.7456 C.ar    1  UNL1        0.0970
     27 N         142.1078  142.0226  170.4010 N.ar    1  UNL1       -0.2168
     28 C         142.5303  142.1369  168.9663 C.ar    1  UNL1        0.2222
     29 F         143.8606  142.7381  168.6217 F       1  UNL1       -0.1832
     30 C         141.6224  141.6499  167.8760 C.ar    1  UNL1        0.0457
     31 C         140.2920  141.0487  168.2206 C.ar    1  UNL1        0.0011
@<TRIPOS>BOND
     1    24    25    1
     2    25    26   ar
     3    26    27   ar
     4    27    28   ar
     5    28    29    1
     6    28    30   ar
     7    30     1    1
     8     1     2   ar
     9     2     3   ar
    10     3     4   ar
    11     4     5   ar
    12     5     6   ar
    13     5     7    1
    14     7     8    1
    15     8     9    1
    16     9    10    1
    17    10    11    1
    18    10    12    2
    19     7    13    1
    20    13    14    1
    21    14    15    1
    22    15    16    1
    23    13    17    1
    24    17    18    1
    25    18    19    1
    26    19    20    1
    27    17    21    1
    28    30    31   ar
    29    31    25   ar
    30     6     1   ar
    31    12     7    1
    32    16    13    1
    33    20    17    1
    34    21     4    1
    35    11    22    1
    36    11    23    1
@<TRIPOS>MOLECULE
*****
 31 36 0 0 0
SMALL
GASTEIGER

@<TRIPOS>ATOM
      1 C         141.5073  142.5195  165.8214 C.ar    1  UNL1        0.0036
      2 C         140.1461  143.1385  165.7022 C.ar    1  UNL1        0.0032
      3 C         139.7267  143.7859  164.4158 C.ar    1  UNL1        0.0366
      4 C         140.6684  143.8143  163.2486 C.ar    1  UNL1        0.1360
      5 C         142.0295  143.1954  163.3677 C.ar    1  UNL1        0.0357
      6 C         142.4490  142.5479  164.6542 C.ar    1  UNL1        0.0008
      7 C         142.9711  143.2238  162.2005 C.3     1  UNL1        0.1580
      8 C         144.0151  143.1757  161.1244 C.3     1  UNL1        0.2351
      9 O         145.2165  142.4664  161.6756 O.2     1  UNL1       -0.4478
     10 C         144.9150  142.0762  163.0922 C.2     1  UNL1        0.2770
     11 N         145.8389  141.3461  164.0212 N.pl3   1  UNL1       -0.3133
     12 N         143.5273  142.5443  163.4166 N.2     1  UNL1       -0.2202
     13 C         142.5517  143.8712  160.9141 C.3     1  UNL1        0.1141
     14 C         142.2890  143.8633  161.2397 C.3     1  UNL1        0.1501
     15 O         142.5651  143.8716  160.8974 O.3     1  UNL1       -0.3532
     16 C         142.2890  143.8633  161.2397 C.3     1  UNL1        0.1501
     17 C         141.1906  144.4902  160.7949 C.3     1  UNL1        0.1395
     18 C         141.8340  144.7069  159.4574 C.3     1  UNL1        0.0404
     19 C         140.5973  145.4058  158.9756 C.3     1  UNL1        0.0072
     20 C         139.9539  145.1891  160.3131 C.3     1  UNL1        0.0404
     21 O         140.2489  144.4617  161.9622 O.3     1  UNL1       -0.4826
     22 H         146.7356  141.0791  163.7145 H       1  UNL1        0.1466
     23 H         145.5488  141.1339  164.9377 H       1  UNL1        0.1466
     24 C         144.3884  142.5523  170.1455 C.3     1  UNL1        0.0327
     25 C         143.3673  141.8885  169.2699 C.ar    1  UNL1       -0.0025
     26 C         142.7657  140.5773  169.6807 C.ar    1  UNL1        0.0970
     27 N         141.7446  139.9135  168.8051 N.ar    1  UNL1       -0.2168
     28 C         141.3251  140.5609  167.5187 C.ar    1  UNL1        0.2222
     29 F         140.3040  139.8971  166.6431 F       1  UNL1       -0.1832
     30 C         141.9267  141.8721  167.1078 C.ar    1  UNL1        0.0457
     31 C         142.9479  142.5359  167.9835 C.ar    1  UNL1        0.0011
@<TRIPOS>BOND
     1    24    25    1
     2    25    26   ar
     3    26    27   ar
     4    27    28   ar
     5    28    29    1
     6    28    30   ar
     7    30     1    1
     8     1     2   ar
     9     2     3   ar
    10     3     4   ar
    11     4     5   ar
    12     5     6   ar
    13     5     7    1
    14     7     8    1
    15     8     9    1
    16     9    10    1
    17    10    11    1
    18    10    12    2
    19     7    13    1
    20    13    14    1
    21    14    15    1
    22    15    16    1
    23    13    17    1
    24    17    18    1
    25    18    19    1
    26    19    20    1
    27    17    21    1
    28    30    31   ar
    29    31    25   ar
    30     6     1   ar
    31    12     7    1
    32    16    13    1
    33    20    17    1
    34    21     4    1
    35    11    22    1
    36    11    23    1
@<TRIPOS>MOLECULE
*****
 31 36 0 0 0
SMALL
GASTEIGER

@<TRIPOS>ATOM
      1 C         141.1701  142.6405  163.7088 C.ar    1  UNL1        0.0036
      2 C         140.1293  143.4312  164.4448 C.ar    1  UNL1        0.0032
      3 C         139.8168  143.1103  165.8763 C.ar    1  UNL1        0.0366
      4 C         140.5451  141.9988  166.5720 C.ar    1  UNL1        0.1360
      5 C         141.5859  141.2081  165.8361 C.ar    1  UNL1        0.0357
      6 C         141.8984  141.5290  164.4045 C.ar    1  UNL1        0.0008
      7 C         142.3142  140.0966  166.5318 C.3     1  UNL1        0.1580
      8 C         143.1203  138.9627  167.0929 C.3     1  UNL1        0.2351
      9 O         144.0360  138.4663  166.0135 O.2     1  UNL1       -0.4478
     10 C         143.7959  139.2933  164.7853 C.2     1  UNL1        0.2770
     11 N         144.4968  139.1397  163.4682 N.pl3   1  UNL1       -0.3133
     12 N         142.7318  140.3009  165.1056 N.2     1  UNL1       -0.2202
     13 C         142.0018  139.7757  167.9634 C.3     1  UNL1        0.1141
     14 C         141.7985  140.0858  167.7693 C.3     1  UNL1        0.1501
     15 O         142.0121  139.7598  167.9733 O.3     1  UNL1       -0.3532
     16 C         141.7985  140.0858  167.7693 C.3     1  UNL1        0.1501
     17 C         140.9609  140.5663  168.6992 C.3     1  UNL1        0.1395
     18 C         141.4622  139.5629  169.6951 C.3     1  UNL1        0.0404
     19 C         140.5190  140.1125  170.7238 C.3     1  UNL1        0.0072
     20 C         140.0177  141.1160  169.7279 C.3     1  UNL1        0.0404
     21 O         140.2326  141.6779  168.0035 O.3     1  UNL1       -0.4826
     22 H         145.1850  138.4449  163.3548 H       1  UNL1        0.1466
     23 H         144.2687  139.7338  162.7170 H       1  UNL1        0.1466
     24 C         141.1002  141.3227  158.6831 C.3     1  UNL1        0.0327
     25 C         141.4476  142.3025  159.7644 C.ar    1  UNL1       -0.0025
     26 C         142.1076  143.6032  159.4141 C.ar    1  UNL1        0.0970
     27 N         142.4550  144.5830  160.4954 N.ar    1  UNL1       -0.2168
     28 C         142.1425  144.2621  161.9270 C.ar    1  UNL1        0.2222
     29 F         142.4900  145.2419  163.0083 F       1  UNL1       -0.1832
     30 C         141.4826  142.9614  162.2773 C.ar    1  UNL1        0.0457
     31 C         141.1351  141.9816  161.1959 C.ar    1  UNL1        0.0011
@<TRIPOS>BOND
     1    24    25    1
     2    25    26   ar
     3    26    27   ar
     4    27    28   ar
     5    28    29    1
     6    28    30   ar
     7    30     1    1
     8     1     2   ar
     9     2     3   ar
    10     3     4   ar
    11     4     5   ar
    12     5     6   ar
    13     5     7    1
    14     7     8    1
    15     8     9    1
    16     9    10    1
    17    10    11    1
    18    10    12    2
    19     7    13    1
    20    13    14    1
    21    14    15    1
    22    15    16    1
    23    13    17    1
    24    17    18    1
    25    18    19    1
    26    19    20    1
    27    17    21    1
    28    30    31   ar
    29    31    25   ar
    30     6     1   ar
    31    12     7    1
    32    16    13    1
    33    20    17    1
    34    21     4    1
    35    11    22    1
    36    11    23    1
@<TRIPOS>MOLECULE
*****
 31 36 0 0 0
SMALL
GASTEIGER

@<TRIPOS>ATOM
      1 C         141.4750  140.0366  166.4492 C.ar    1  UNL1        0.0036
      2 C         142.7997  139.3341  166.4064 C.ar    1  UNL1        0.0032
      3 C         143.3052  138.7645  165.1141 C.ar    1  UNL1        0.0366
      4 C         142.4862  138.8975  163.8646 C.ar    1  UNL1        0.1360
      5 C         141.1616  139.6001  163.9073 C.ar    1  UNL1        0.0357
      6 C         140.6560  140.1696  165.1996 C.ar    1  UNL1        0.0008
      7 C         140.3425  139.7331  162.6577 C.3     1  UNL1        0.1580
      8 C         139.4175  139.9421  161.4955 C.3     1  UNL1        0.2351
      9 O         138.2135  140.6882  161.9897 O.2     1  UNL1       -0.4478
     10 C         138.3945  140.9402  163.4572 C.2     1  UNL1        0.2770
     11 N         137.4293  141.6567  164.3543 N.pl3   1  UNL1       -0.3133
     12 N         139.7103  140.3500  163.8701 N.2     1  UNL1       -0.2202
     13 C         140.8480  139.1635  161.3654 C.3     1  UNL1        0.1141
     14 C         141.0766  139.1264  161.7140 C.3     1  UNL1        0.1501
     15 O         140.8363  139.1654  161.3476 O.3     1  UNL1       -0.3532
     16 C         141.0766  139.1264  161.7140 C.3     1  UNL1        0.1501
     17 C         142.1726  138.4610  161.3227 C.3     1  UNL1        0.1395
     18 C         141.6550  138.3994  159.9162 C.3     1  UNL1        0.0404
     19 C         142.8876  137.6555  159.4950 C.3     1  UNL1        0.0072
     20 C         143.4052  137.7172  160.9016 C.3     1  UNL1        0.0404
     21 O         142.9917  138.3280  162.5723 O.3     1  UNL1       -0.4826
     22 H         136.5868  142.0107  163.9882 H       1  UNL1        0.1466
     23 H         137.6384  141.7730  165.3093 H       1  UNL1        0.1466
     24 C         138.0436  139.9894  170.3508 C.3     1  UNL1        0.0327
     25 C         139.2538  140.5825  169.6923 C.ar    1  UNL1       -0.0025
     26 C         139.9584  141.7452  170.3261 C.ar    1  UNL1        0.0970
     27 N         141.1686  142.3383  169.6676 N.ar    1  UNL1       -0.2168
     28 C         141.6742  141.7688  168.3752 C.ar    1  UNL1        0.2222
     29 F         142.8843  142.3620  167.7168 F       1  UNL1       -0.1832
     30 C         140.9695  140.6062  167.7414 C.ar    1  UNL1        0.0457
     31 C         139.7593  140.0130  168.4000 C.ar    1  UNL1        0.0011
@<TRIPOS>BOND
     1    24    25    1
     2    25    26   ar
     3    26    27   ar
     4    27    28   ar
     5    28    29    1
     6    28    30   ar
     7    30     1    1
     8     1     2   ar
     9     2     3   ar
    10     3     4   ar
    11     4     5   ar
    12     5     6   ar
    13     5     7    1
    14     7     8    1
    15     8     9    1
    16     9    10    1
    17    10    11    1
    18    10    12    2
    19     7    13    1
    20    13    14    1
    21    14    15    1
    22    15    16    1
    23    13    17    1
    24    17    18    1
    25    18    19    1
    26    19    20    1
    27    17    21    1
    28    30    31   ar
    29    31    25   ar
    30     6     1   ar
    31    12     7    1
    32    16    13    1
    33    20    17    1
    34    21     4    1
    35    11    22    1
    36    11    23    1
