@<TRIPOS>MOLECULE
*****
 24 26 0 0 0
SMALL
GASTEIGER

@<TRIPOS>ATOM
      1 C         140.1787  144.8066  162.5865 C.2     1  UNL1        0.3707
      2 N         138.9145  145.4906  162.1575 N.2     1  UNL1        0.0819
      3 N         137.7575  144.6379  162.5866 N.2     1  UNL1       -0.0363
      4 C         138.3066  143.4268  163.2808 C.2     1  UNL1        0.1378
      5 C         137.6373  142.2426  163.9130 C.3     1  UNL1        0.1173
      6 C         138.4644  141.1627  164.5451 C.2     1  UNL1        0.1494
      7 C         139.9608  141.2669  164.5450 C.2     1  UNL1        0.1321
      8 N         140.6300  142.4511  163.9129 N.2     1  UNL1       -0.2323
      9 C         139.8029  143.5311  163.2808 C.2     1  UNL1        0.1836
     10 N         141.5737  145.3097  162.3609 N.pl3   1  UNL1       -0.1957
     11 H         141.7181  146.2021  161.9712 H       1  UNL1        0.2986
     12 F         146.2735  141.8829  163.8336 F       1  UNL1       -0.2018
     13 C         145.0986  142.7396  163.4655 C.ar    1  UNL1        0.1676
     14 C         144.5209  142.6665  162.0831 C.ar    1  UNL1        0.0355
     15 C         143.3460  143.5231  161.7148 C.ar    1  UNL1        0.0426
     16 C         142.7487  144.4529  162.7291 C.ar    1  UNL1        0.1381
     17 C         143.3263  144.5260  164.1115 C.ar    1  UNL1        0.0721
     18 C         144.5012  143.6694  164.4797 C.ar    1  UNL1        0.1708
     19 F         145.0788  143.7425  165.8621 F       1  UNL1       -0.2017
     20 O         137.7951  139.9784  165.1773 O.2     1  UNL1       -0.4069
     21 C         138.5232  138.6708  165.2782 C.3     1  UNL1        0.5750
     22 F         139.2513  137.3633  165.3790 F       1  UNL1       -0.1328
     23 F         138.7471  138.9084  166.7422 F       1  UNL1       -0.1328
     24 F         138.2993  138.4332  163.8141 F       1  UNL1       -0.1328
@<TRIPOS>BOND
     1    12    13    1
     2    13    14   ar
     3    14    15   ar
     4    15    16   ar
     5    16    10    1
     6    10     1    1
     7     1     2    2
     8     2     3    1
     9     3     4    2
    10     4     5    1
    11     5     6    1
    12     6    20    1
    13    20    21    1
    14    21    22    1
    15    21    23    1
    16    21    24    1
    17     6     7    2
    18     7     8    1
    19     8     9    2
    20    16    17   ar
    21    17    18   ar
    22    18    19    1
    23    18    13   ar
    24     9     1    1
    25     9     4    1
    26    10    11    1
@<TRIPOS>MOLECULE
*****
 24 26 0 0 0
SMALL
GASTEIGER

@<TRIPOS>ATOM
      1 C         138.5240  139.8620  165.5475 C.2     1  UNL1        0.3707
      2 N         137.6859  138.8410  166.2582 N.2     1  UNL1        0.0819
      3 N         138.0784  138.8458  167.7060 N.2     1  UNL1       -0.0363
      4 C         139.1590  139.8698  167.8900 C.2     1  UNL1        0.1378
      5 C         139.9277  140.3114  169.0999 C.3     1  UNL1        0.1173
      6 C         140.9719  141.3811  168.9758 C.2     1  UNL1        0.1494
      7 C         141.2473  142.0091  167.6418 C.2     1  UNL1        0.1321
      8 N         140.4786  141.5675  166.4319 N.2     1  UNL1       -0.2323
      9 C         139.4344  140.4978  166.5560 C.2     1  UNL1        0.1836
     10 N         138.4625  140.1897  164.0850 N.pl3   1  UNL1       -0.1957
     11 H         138.3204  139.4728  163.4255 H       1  UNL1        0.2986
     12 F         139.0833  145.8700  162.2548 F       1  UNL1       -0.2018
     13 C         138.9281  144.4499  162.7123 C.ar    1  UNL1        0.1676
     14 C         137.7528  144.0587  163.5582 C.ar    1  UNL1        0.0355
     15 C         137.5975  142.6387  164.0158 C.ar    1  UNL1        0.0426
     16 C         138.6177  141.6099  163.6275 C.ar    1  UNL1        0.1381
     17 C         139.7931  142.0011  162.7816 C.ar    1  UNL1        0.0721
     18 C         139.9483  143.4211  162.3240 C.ar    1  UNL1        0.1708
     19 F         141.1236  143.8124  161.4782 F       1  UNL1       -0.2017
     20 O         141.7407  141.8227  170.1858 O.2     1  UNL1       -0.4069
     21 C         143.1808  142.2215  170.0550 C.3     1  UNL1        0.5750
     22 F         144.6209  142.6202  169.9242 F       1  UNL1       -0.1328
     23 F         143.5392  140.8095  169.6973 F       1  UNL1       -0.1328
     24 F         142.8223  143.6334  170.4127 F       1  UNL1       -0.1328
@<TRIPOS>BOND
     1    12    13    1
     2    13    14   ar
     3    14    15   ar
     4    15    16   ar
     5    16    10    1
     6    10     1    1
     7     1     2    2
     8     2     3    1
     9     3     4    2
    10     4     5    1
    11     5     6    1
    12     6    20    1
    13    20    21    1
    14    21    22    1
    15    21    23    1
    16    21    24    1
    17     6     7    2
    18     7     8    1
    19     8     9    2
    20    16    17   ar
    21    17    18   ar
    22    18    19    1
    23    18    13   ar
    24     9     1    1
    25     9     4    1
    26    10    11    1
@<TRIPOS>MOLECULE
*****
 24 26 0 0 0
SMALL
GASTEIGER

@<TRIPOS>ATOM
      1 C         138.5373  143.1997  162.6594 C.2     1  UNL1        0.3707
      2 N         138.2221  144.6480  162.4296 N.2     1  UNL1        0.0819
      3 N         139.5163  145.4059  162.4057 N.2     1  UNL1       -0.0363
      4 C         140.6314  144.4259  162.6207 C.2     1  UNL1        0.1378
      5 C         142.1195  144.5990  162.6940 C.3     1  UNL1        0.1173
      6 C         143.0026  143.4086  162.9240 C.2     1  UNL1        0.1494
      7 C         142.3975  142.0450  163.0808 C.2     1  UNL1        0.1321
      8 N         140.9094  141.8719  163.0075 N.2     1  UNL1       -0.2323
      9 C         140.0263  143.0624  162.7775 C.2     1  UNL1        0.1836
     10 N         137.5388  142.0843  162.7543 N.pl3   1  UNL1       -0.1957
     11 H         136.6344  142.2004  162.3832 H       1  UNL1        0.2986
     12 F         139.0569  136.9157  165.3965 F       1  UNL1       -0.2018
     13 C         138.6773  138.2078  164.7360 C.ar    1  UNL1        0.1676
     14 C         138.5726  138.2838  163.2416 C.ar    1  UNL1        0.0355
     15 C         138.1931  139.5759  162.5810 C.ar    1  UNL1        0.0426
     16 C         137.9183  140.7921  163.4149 C.ar    1  UNL1        0.1381
     17 C         138.0230  140.7161  164.9093 C.ar    1  UNL1        0.0721
     18 C         138.4025  139.4240  165.5699 C.ar    1  UNL1        0.1708
     19 F         138.5072  139.3480  167.0643 F       1  UNL1       -0.2017
     20 O         144.4908  143.5817  162.9973 O.2     1  UNL1       -0.4069
     21 C         145.3507  142.4680  163.5175 C.3     1  UNL1        0.5750
     22 F         146.2105  141.3544  164.0376 F       1  UNL1       -0.1328
     23 F         145.5702  141.9826  162.1152 F       1  UNL1       -0.1328
     24 F         145.1311  142.9534  164.9197 F       1  UNL1       -0.1328
@<TRIPOS>BOND
     1    12    13    1
     2    13    14   ar
     3    14    15   ar
     4    15    16   ar
     5    16    10    1
     6    10     1    1
     7     1     2    2
     8     2     3    1
     9     3     4    2
    10     4     5    1
    11     5     6    1
    12     6    20    1
    13    20    21    1
    14    21    22    1
    15    21    23    1
    16    21    24    1
    17     6     7    2
    18     7     8    1
    19     8     9    2
    20    16    17   ar
    21    17    18   ar
    22    18    19    1
    23    18    13   ar
    24     9     1    1
    25     9     4    1
    26    10    11    1
@<TRIPOS>MOLECULE
*****
 24 26 0 0 0
SMALL
GASTEIGER

@<TRIPOS>ATOM
      1 C         138.5184  139.7661  165.6895 C.2     1  UNL1        0.3707
      2 N         137.6647  138.7834  166.4348 N.2     1  UNL1        0.0819
      3 N         138.0456  138.8445  167.8843 N.2     1  UNL1       -0.0363
      4 C         139.1347  139.8650  168.0349 C.2     1  UNL1        0.1378
      5 C         139.8980  140.3491  169.2319 C.3     1  UNL1        0.1173
      6 C         140.9535  141.4028  169.0724 C.2     1  UNL1        0.1494
      7 C         141.2457  141.9724  167.7158 C.2     1  UNL1        0.1321
      8 N         140.4824  141.4883  166.5188 N.2     1  UNL1       -0.2323
      9 C         139.4269  140.4346  166.6783 C.2     1  UNL1        0.1836
     10 N         138.4718  140.0335  164.2142 N.pl3   1  UNL1       -0.1957
     11 H         137.7961  140.6478  163.8464 H       1  UNL1        0.2986
     12 F         142.4033  137.3589  160.5550 F       1  UNL1       -0.2018
     13 C         141.4205  138.0275  161.4698 C.ar    1  UNL1        0.1676
     14 C         140.0223  138.2988  160.9991 C.ar    1  UNL1        0.0355
     15 C         139.0394  138.9675  161.9138 C.ar    1  UNL1        0.0426
     16 C         139.4547  139.3648  163.2993 C.ar    1  UNL1        0.1381
     17 C         140.8529  139.0935  163.7701 C.ar    1  UNL1        0.0721
     18 C         141.8358  138.4249  162.8553 C.ar    1  UNL1        0.1708
     19 F         143.2339  138.1536  163.3260 F       1  UNL1       -0.2017
     20 O         141.7169  141.8870  170.2694 O.2     1  UNL1       -0.4069
     21 C         143.1513  142.3021  170.1266 C.3     1  UNL1        0.5750
     22 F         144.5856  142.7171  169.9838 F       1  UNL1       -0.1328
     23 F         142.7791  143.7109  170.4827 F       1  UNL1       -0.1328
     24 F         143.5235  140.8933  169.7705 F       1  UNL1       -0.1328
@<TRIPOS>BOND
     1    12    13    1
     2    13    14   ar
     3    14    15   ar
     4    15    16   ar
     5    16    10    1
     6    10     1    1
     7     1     2    2
     8     2     3    1
     9     3     4    2
    10     4     5    1
    11     5     6    1
    12     6    20    1
    13    20    21    1
    14    21    22    1
    15    21    23    1
    16    21    24    1
    17     6     7    2
    18     7     8    1
    19     8     9    2
    20    16    17   ar
    21    17    18   ar
    22    18    19    1
    23    18    13   ar
    24     9     1    1
    25     9     4    1
    26    10    11    1
@<TRIPOS>MOLECULE
*****
 24 26 0 0 0
SMALL
GASTEIGER

@<TRIPOS>ATOM
      1 C         137.9578  143.0349  163.2553 C.2     1  UNL1        0.3707
      2 N         137.9659  144.0876  164.3238 N.2     1  UNL1        0.0819
      3 N         138.8427  145.2126  163.8593 N.2     1  UNL1       -0.0363
      4 C         139.3765  144.8552  162.5039 C.2     1  UNL1        0.1378
      5 C         140.2898  145.5813  161.5613 C.3     1  UNL1        0.1173
      6 C         140.6562  144.9616  160.2454 C.2     1  UNL1        0.1494
      7 C         140.1093  143.6157  159.8721 C.2     1  UNL1        0.1321
      8 N         139.1960  142.8895  160.8146 N.2     1  UNL1       -0.2323
      9 C         138.8295  143.5092  162.1305 C.2     1  UNL1        0.1836
     10 N         137.2093  141.7359  163.3031 N.pl3   1  UNL1       -0.1957
     11 H         136.2601  141.7048  163.0437 H       1  UNL1        0.2986
     12 F         140.0004  136.7289  165.0752 F       1  UNL1       -0.2018
     13 C         139.3026  137.9806  164.6322 C.ar    1  UNL1        0.1676
     14 C         138.7568  138.9360  165.6517 C.ar    1  UNL1        0.0355
     15 C         138.0591  140.1877  165.2087 C.ar    1  UNL1        0.0426
     16 C         137.9071  140.4841  163.7462 C.ar    1  UNL1        0.1381
     17 C         138.4529  139.5287  162.7267 C.ar    1  UNL1        0.0721
     18 C         139.1506  138.2770  163.1696 C.ar    1  UNL1        0.1708
     19 F         139.6964  137.3216  162.1501 F       1  UNL1       -0.2017
     20 O         141.5696  145.6877  159.3028 O.2     1  UNL1       -0.4069
     21 C         141.2985  145.6632  157.8277 C.3     1  UNL1        0.5750
     22 F         141.0274  145.6387  156.3526 F       1  UNL1       -0.1328
     23 F         139.9938  146.3672  158.0558 F       1  UNL1       -0.1328
     24 F         142.6033  144.9592  157.5996 F       1  UNL1       -0.1328
@<TRIPOS>BOND
     1    12    13    1
     2    13    14   ar
     3    14    15   ar
     4    15    16   ar
     5    16    10    1
     6    10     1    1
     7     1     2    2
     8     2     3    1
     9     3     4    2
    10     4     5    1
    11     5     6    1
    12     6    20    1
    13    20    21    1
    14    21    22    1
    15    21    23    1
    16    21    24    1
    17     6     7    2
    18     7     8    1
    19     8     9    2
    20    16    17   ar
    21    17    18   ar
    22    18    19    1
    23    18    13   ar
    24     9     1    1
    25     9     4    1
    26    10    11    1
@<TRIPOS>MOLECULE
*****
 24 26 0 0 0
SMALL
GASTEIGER

@<TRIPOS>ATOM
      1 C         140.7071  139.9980  163.5124 C.2     1  UNL1        0.3707
      2 N         139.6257  139.1430  162.9211 N.2     1  UNL1        0.0819
      3 N         138.7143  138.7141  164.0326 N.2     1  UNL1       -0.0363
      4 C         139.2324  139.3040  165.3107 C.2     1  UNL1        0.1378
      5 C         138.7418  139.2211  166.7258 C.3     1  UNL1        0.1173
      6 C         139.4828  139.9317  167.8193 C.2     1  UNL1        0.1494
      7 C         140.7145  140.7253  167.4977 C.2     1  UNL1        0.1321
      8 N         141.2051  140.8081  166.0827 N.2     1  UNL1       -0.2323
      9 C         140.4640  140.0975  164.9892 C.2     1  UNL1        0.1836
     10 N         141.8338  140.6407  162.7590 N.pl3   1  UNL1       -0.1957
     11 H         142.1803  140.2207  161.9388 H       1  UNL1        0.2986
     12 F         144.2287  145.7712  164.7445 F       1  UNL1       -0.2018
     13 C         143.6300  144.4886  164.2481 C.ar    1  UNL1        0.1676
     14 C         144.3740  143.1976  164.4201 C.ar    1  UNL1        0.0355
     15 C         143.7754  141.9150  163.9238 C.ar    1  UNL1        0.0426
     16 C         142.4325  141.9234  163.2554 C.ar    1  UNL1        0.1381
     17 C         141.6885  143.2144  163.0833 C.ar    1  UNL1        0.0721
     18 C         142.2871  144.4970  163.5797 C.ar    1  UNL1        0.1708
     19 F         141.5431  145.7880  163.4076 F       1  UNL1       -0.2017
     20 O         138.9923  139.8489  169.2344 O.2     1  UNL1       -0.4069
     21 C         139.7908  140.4688  170.3425 C.3     1  UNL1        0.5750
     22 F         140.5894  141.0888  171.4506 F       1  UNL1       -0.1328
     23 F         138.9776  141.7239  170.2265 F       1  UNL1       -0.1328
     24 F         140.6041  139.2138  170.4586 F       1  UNL1       -0.1328
@<TRIPOS>BOND
     1    12    13    1
     2    13    14   ar
     3    14    15   ar
     4    15    16   ar
     5    16    10    1
     6    10     1    1
     7     1     2    2
     8     2     3    1
     9     3     4    2
    10     4     5    1
    11     5     6    1
    12     6    20    1
    13    20    21    1
    14    21    22    1
    15    21    23    1
    16    21    24    1
    17     6     7    2
    18     7     8    1
    19     8     9    2
    20    16    17   ar
    21    17    18   ar
    22    18    19    1
    23    18    13   ar
    24     9     1    1
    25     9     4    1
    26    10    11    1
@<TRIPOS>MOLECULE
*****
 24 26 0 0 0
SMALL
GASTEIGER

@<TRIPOS>ATOM
      1 C         143.3649  138.8065  165.8497 C.2     1  UNL1        0.3707
      2 N         144.5842  139.1120  165.0312 N.2     1  UNL1        0.0819
      3 N         144.2158  138.9790  163.5833 N.2     1  UNL1       -0.0363
      4 C         142.7688  138.5912  163.5068 C.2     1  UNL1        0.1378
      5 C         141.8621  138.3213  162.3428 C.3     1  UNL1        0.1173
      6 C         140.4296  137.9449  162.5794 C.2     1  UNL1        0.1494
      7 C         139.9037  137.8383  163.9801 C.2     1  UNL1        0.1321
      8 N         140.8103  138.1081  165.1442 N.2     1  UNL1       -0.2323
      9 C         142.2429  138.4846  164.9076 C.2     1  UNL1        0.1836
     10 N         143.2820  138.8204  167.3473 N.pl3   1  UNL1       -0.1957
     11 H         143.7663  138.1436  167.8734 H       1  UNL1        0.2986
     12 F         139.9996  143.0005  170.1316 F       1  UNL1       -0.2018
     13 C         140.8202  141.9555  169.4356 C.ar    1  UNL1        0.1676
     14 C         141.4196  142.2450  168.0914 C.ar    1  UNL1        0.0355
     15 C         142.2402  141.2000  167.3953 C.ar    1  UNL1        0.0426
     16 C         142.4614  139.8655  168.0434 C.ar    1  UNL1        0.1381
     17 C         141.8620  139.5760  169.3876 C.ar    1  UNL1        0.0721
     18 C         141.0414  140.6209  170.0837 C.ar    1  UNL1        0.1708
     19 F         140.4419  140.3314  171.4279 F       1  UNL1       -0.2017
     20 O         139.5228  137.6751  161.4153 O.2     1  UNL1       -0.4069
     21 C         138.3971  138.6174  161.1073 C.3     1  UNL1        0.5750
     22 F         137.2714  139.5596  160.7993 F       1  UNL1       -0.1328
     23 F         137.4315  137.6805  161.7705 F       1  UNL1       -0.1328
     24 F         139.3627  139.5542  160.4441 F       1  UNL1       -0.1328
@<TRIPOS>BOND
     1    12    13    1
     2    13    14   ar
     3    14    15   ar
     4    15    16   ar
     5    16    10    1
     6    10     1    1
     7     1     2    2
     8     2     3    1
     9     3     4    2
    10     4     5    1
    11     5     6    1
    12     6    20    1
    13    20    21    1
    14    21    22    1
    15    21    23    1
    16    21    24    1
    17     6     7    2
    18     7     8    1
    19     8     9    2
    20    16    17   ar
    21    17    18   ar
    22    18    19    1
    23    18    13   ar
    24     9     1    1
    25     9     4    1
    26    10    11    1
@<TRIPOS>MOLECULE
*****
 24 26 0 0 0
SMALL
GASTEIGER

@<TRIPOS>ATOM
      1 C         138.7353  138.3571  165.5743 C.2     1  UNL1        0.3707
      2 N         137.6672  138.0315  166.5759 N.2     1  UNL1        0.0819
      3 N         137.8964  138.8812  167.7906 N.2     1  UNL1       -0.0363
      4 C         139.1061  139.7320  167.5397 C.2     1  UNL1        0.1378
      5 C         139.8025  140.7598  168.3815 C.3     1  UNL1        0.1173
      6 C         141.0173  141.4636  167.8535 C.2     1  UNL1        0.1494
      7 C         141.5357  141.1397  166.4837 C.2     1  UNL1        0.1321
      8 N         140.8393  140.1119  165.6419 N.2     1  UNL1       -0.2323
      9 C         139.6245  139.4081  166.1699 C.2     1  UNL1        0.1836
     10 N         138.8874  137.7401  164.2155 N.pl3   1  UNL1       -0.1957
     11 H         139.0988  136.7823  164.1307 H       1  UNL1        0.2986
     12 F         138.2070  141.1093  159.2976 F       1  UNL1       -0.2018
     13 C         138.3771  140.2670  160.5271 C.ar    1  UNL1        0.1676
     14 C         138.9129  138.8708  160.4114 C.ar    1  UNL1        0.0355
     15 C         139.0830  138.0284  161.6409 C.ar    1  UNL1        0.0426
     16 C         138.7173  138.5824  162.9860 C.ar    1  UNL1        0.1381
     17 C         138.1815  139.9787  163.1016 C.ar    1  UNL1        0.0721
     18 C         138.0114  140.8210  161.8722 C.ar    1  UNL1        0.1708
     19 F         137.4756  142.2173  161.9878 F       1  UNL1       -0.2017
     20 O         141.7137  142.4915  168.6953 O.2     1  UNL1       -0.4069
     21 C         141.9339  142.2393  170.1575 C.3     1  UNL1        0.5750
     22 F         142.1540  141.9871  171.6196 F       1  UNL1       -0.1328
     23 F         143.0665  141.3130  169.8272 F       1  UNL1       -0.1328
     24 F         140.8013  143.1656  170.4878 F       1  UNL1       -0.1328
@<TRIPOS>BOND
     1    12    13    1
     2    13    14   ar
     3    14    15   ar
     4    15    16   ar
     5    16    10    1
     6    10     1    1
     7     1     2    2
     8     2     3    1
     9     3     4    2
    10     4     5    1
    11     5     6    1
    12     6    20    1
    13    20    21    1
    14    21    22    1
    15    21    23    1
    16    21    24    1
    17     6     7    2
    18     7     8    1
    19     8     9    2
    20    16    17   ar
    21    17    18   ar
    22    18    19    1
    23    18    13   ar
    24     9     1    1
    25     9     4    1
    26    10    11    1
@<TRIPOS>MOLECULE
*****
 24 26 0 0 0
SMALL
GASTEIGER

@<TRIPOS>ATOM
      1 C         140.0732  139.6412  164.6053 C.2     1  UNL1        0.3707
      2 N         140.8821  138.4722  164.1267 N.2     1  UNL1        0.0819
      3 N         141.9771  138.2275  165.1223 N.2     1  UNL1       -0.0363
      4 C         141.8449  139.2453  166.2162 C.2     1  UNL1        0.1378
      5 C         142.6439  139.4894  167.4620 C.3     1  UNL1        0.1173
      6 C         142.2662  140.6071  168.3882 C.2     1  UNL1        0.1494
      7 C         141.0895  141.4808  168.0686 C.2     1  UNL1        0.1321
      8 N         140.2905  141.2368  166.8229 N.2     1  UNL1       -0.2323
      9 C         140.6682  140.1190  165.8967 C.2     1  UNL1        0.1836
     10 N         138.8789  140.2291  163.9139 N.pl3   1  UNL1       -0.1957
     11 H         138.0819  139.6746  163.7511 H       1  UNL1        0.2986
     12 F         138.9593  145.9605  162.1405 F       1  UNL1       -0.2018
     13 C         138.9393  144.5277  162.5839 C.ar    1  UNL1        0.1676
     14 C         137.7264  143.9716  163.2693 C.ar    1  UNL1        0.0355
     15 C         137.7063  142.5388  163.7126 C.ar    1  UNL1        0.0426
     16 C         138.8990  141.6621  163.4705 C.ar    1  UNL1        0.1381
     17 C         140.1119  142.2181  162.7851 C.ar    1  UNL1        0.0721
     18 C         140.1320  143.6509  162.3418 C.ar    1  UNL1        0.1708
     19 F         141.3449  144.2070  161.6564 F       1  UNL1       -0.2017
     20 O         143.0652  140.8513  169.6340 O.2     1  UNL1       -0.4069
     21 C         143.1635  142.2358  170.2027 C.3     1  UNL1        0.5750
     22 F         143.2618  143.6204  170.7713 F       1  UNL1       -0.1328
     23 F         142.1632  141.8726  171.2598 F       1  UNL1       -0.1328
     24 F         144.1638  142.5990  169.1456 F       1  UNL1       -0.1328
@<TRIPOS>BOND
     1    12    13    1
     2    13    14   ar
     3    14    15   ar
     4    15    16   ar
     5    16    10    1
     6    10     1    1
     7     1     2    2
     8     2     3    1
     9     3     4    2
    10     4     5    1
    11     5     6    1
    12     6    20    1
    13    20    21    1
    14    21    22    1
    15    21    23    1
    16    21    24    1
    17     6     7    2
    18     7     8    1
    19     8     9    2
    20    16    17   ar
    21    17    18   ar
    22    18    19    1
    23    18    13   ar
    24     9     1    1
    25     9     4    1
    26    10    11    1
