@<TRIPOS>MOLECULE
*****
 32 36 0 0 0
SMALL
GASTEIGER

@<TRIPOS>ATOM
      1 C         140.0237  138.0797  163.1166 C.2     1  UNL1        0.2257
      2 O         140.9053  136.8754  162.9668 O.2     1  UNL1       -0.2749
      3 N         139.4994  138.7815  161.8990 N.am    1  UNL1       -0.2760
      4 C         139.8568  138.2792  160.5316 C.3     1  UNL1        0.1149
      5 C         139.3326  138.9810  159.3140 C.3     1  UNL1        0.1141
      6 N         138.4509  140.1853  159.4638 N.pl3   1  UNL1       -0.2847
      7 C         138.0935  140.6876  160.8313 C.3     1  UNL1        0.1141
      8 C         138.6178  139.9858  162.0489 C.3     1  UNL1        0.1149
      9 C         137.9267  140.8872  158.2462 C.ar    1  UNL1        0.1625
     10 N         137.0248  140.2925  157.2056 N.ar    1  UNL1       -0.2286
     11 C         136.7530  141.3447  156.1717 C.ar    1  UNL1        0.0678
     12 C         137.4869  142.5897  156.5734 C.ar    1  UNL1        0.0531
     13 S         138.2123  142.3069  157.8555 S.2     1  UNL1       -0.0538
     14 C         137.3999  143.8201  155.7198 C.3     1  UNL1        0.1763
     15 O         136.5789  143.8054  154.4645 O.3     1  UNL1       -0.3480
     16 C         135.8450  142.5604  154.0628 C.3     1  UNL1        0.1489
     17 C         135.9320  141.3301  154.9164 C.3     1  UNL1        0.0782
     18 C         140.4610  139.6912  165.1070 C.3     1  UNL1        0.0851
     19 C         140.1036  140.1936  166.4745 C.3     1  UNL1        0.0096
     20 C         138.9515  139.5867  167.2189 C.3     1  UNL1        0.0005
     21 C         138.1567  138.4775  166.5960 C.3     1  UNL1        0.0005
     22 C         138.5141  137.9752  165.2286 C.3     1  UNL1        0.0096
     23 C         139.6663  138.5820  164.4840 C.3     1  UNL1        0.0853
     24 N         142.9583  139.6350  164.3926 N.am    1  UNL1       -0.2959
     25 C         141.6132  140.2981  164.3625 C.2     1  UNL1        0.2231
     26 O         141.4201  141.5680  163.5880 O.2     1  UNL1       -0.2751
     27 H         143.0850  138.8014  164.9009 H       1  UNL1        0.1502
     28 C         144.1104  140.2418  163.6481 C.3     1  UNL1        0.1364
     29 C         145.2700  141.1404  163.3351 C.3     1  UNL1        0.0353
     30 C         144.5319  141.2925  164.6320 C.3     1  UNL1        0.0353
     31 N         144.0677  138.5618  161.1630 N.1     1  UNL1       -0.1943
     32 C         144.0890  139.4018  162.4055 C.1     1  UNL1        0.0896
@<TRIPOS>BOND
     1    31    32    3
     2    32    28    1
     3    28    24    1
     4    24    25   am
     5    25    26    2
     6    18    25    1
     7    18    19    1
     8    19    20    1
     9    20    21    1
    10    21    22    1
    11    22    23    1
    12    23     1    1
    13     1     2    2
    14     1     3   am
    15     3     4    1
    16     4     5    1
    17     5     6    1
    18     6     9    1
    19     9    10   ar
    20    10    11   ar
    21    11    12   ar
    22    12    13   ar
    23    12    14    1
    24    14    15    1
    25    15    16    1
    26    16    17    1
    27     6     7    1
    28     7     8    1
    29    28    29    1
    30    29    30    1
    31    30    28    1
    32    23    18    1
    33     8     3    1
    34    13     9   ar
    35    17    11    1
    36    24    27    1
@<TRIPOS>MOLECULE
*****
 32 36 0 0 0
SMALL
GASTEIGER

@<TRIPOS>ATOM
      1 C         140.0393  138.0955  163.2212 C.2     1  UNL1        0.2257
      2 O         141.0025  136.9550  163.0743 O.2     1  UNL1       -0.2749
      3 N         139.5136  138.7948  162.0027 N.am    1  UNL1       -0.2760
      4 C         139.9511  138.3536  160.6375 C.3     1  UNL1        0.1149
      5 C         139.4254  139.0530  159.4190 C.3     1  UNL1        0.1141
      6 N         138.4623  140.1935  159.5658 N.pl3   1  UNL1       -0.2847
      7 C         138.0248  140.6346  160.9311 C.3     1  UNL1        0.1141
      8 C         138.5505  139.9353  162.1495 C.3     1  UNL1        0.1149
      9 C         137.9366  140.8928  158.3474 C.ar    1  UNL1        0.1625
     10 N         137.0054  140.3072  157.3276 N.ar    1  UNL1       -0.2286
     11 C         136.7431  141.3530  156.2847 C.ar    1  UNL1        0.0678
     12 C         137.5122  142.5849  156.6600 C.ar    1  UNL1        0.0531
     13 S         138.2498  142.3005  157.9348 S.2     1  UNL1       -0.0538
     14 C         137.4414  143.8065  155.7925 C.3     1  UNL1        0.1763
     15 O         136.6017  143.7962  154.5497 O.3     1  UNL1       -0.3480
     16 C         135.8326  142.5642  154.1744 C.3     1  UNL1        0.1489
     17 C         135.9033  141.3426  155.0419 C.3     1  UNL1        0.0782
     18 C         140.3448  139.6300  165.2952 C.3     1  UNL1        0.0851
     19 C         139.9073  140.0712  166.6605 C.3     1  UNL1        0.0096
     20 C         138.7269  139.4189  167.3170 C.3     1  UNL1        0.0005
     21 C         137.9839  138.3255  166.6082 C.3     1  UNL1        0.0005
     22 C         138.4214  137.8843  165.2430 C.3     1  UNL1        0.0096
     23 C         139.6019  138.5366  164.5864 C.3     1  UNL1        0.0853
     24 N         142.9166  139.9181  165.0649 N.am    1  UNL1       -0.2959
     25 C         141.5253  140.2823  164.6387 C.2     1  UNL1        0.2231
     26 O         141.3144  141.2988  163.5560 O.2     1  UNL1       -0.2751
     27 H         143.0550  139.2510  165.7756 H       1  UNL1        0.1502
     28 C         144.0970  140.5704  164.4085 C.3     1  UNL1        0.1364
     29 C         145.2794  140.7637  163.5058 C.3     1  UNL1        0.0353
     30 C         144.5123  139.4751  163.4716 C.3     1  UNL1        0.0353
     31 N         144.0865  143.2142  165.8264 N.1     1  UNL1       -0.1943
     32 C         144.0918  141.8924  165.1174 C.1     1  UNL1        0.0896
@<TRIPOS>BOND
     1    31    32    3
     2    32    28    1
     3    28    24    1
     4    24    25   am
     5    25    26    2
     6    18    25    1
     7    18    19    1
     8    19    20    1
     9    20    21    1
    10    21    22    1
    11    22    23    1
    12    23     1    1
    13     1     2    2
    14     1     3   am
    15     3     4    1
    16     4     5    1
    17     5     6    1
    18     6     9    1
    19     9    10   ar
    20    10    11   ar
    21    11    12   ar
    22    12    13   ar
    23    12    14    1
    24    14    15    1
    25    15    16    1
    26    16    17    1
    27     6     7    1
    28     7     8    1
    29    28    29    1
    30    29    30    1
    31    30    28    1
    32    23    18    1
    33     8     3    1
    34    13     9   ar
    35    17    11    1
    36    24    27    1
@<TRIPOS>MOLECULE
*****
 32 36 0 0 0
SMALL
GASTEIGER

@<TRIPOS>ATOM
      1 C         137.9493  140.9457  163.4511 C.2     1  UNL1        0.2257
      2 O         136.8548  141.9589  163.2916 O.2     1  UNL1       -0.2749
      3 N         138.5556  140.2999  162.2406 N.am    1  UNL1       -0.2760
      4 C         138.0675  140.6673  160.8707 C.3     1  UNL1        0.1149
      5 C         138.6738  140.0214  159.6602 C.3     1  UNL1        0.1141
      6 N         139.7684  139.0083  159.8196 N.pl3   1  UNL1       -0.2847
      7 C         140.2565  138.6410  161.1896 C.3     1  UNL1        0.1141
      8 C         139.6502  139.2868  162.4000 C.3     1  UNL1        0.1149
      9 C         140.3747  138.3625  158.6092 C.ar    1  UNL1        0.1625
     10 N         139.6214  137.7316  157.4758 N.ar    1  UNL1       -0.2286
     11 C         140.6220  137.2134  156.4857 C.ar    1  UNL1        0.0678
     12 C         141.9937  137.5239  157.0072 C.ar    1  UNL1        0.0531
     13 S         141.8409  138.2340  158.3195 S.2     1  UNL1       -0.0538
     14 C         143.2047  137.1199  156.2196 C.3     1  UNL1        0.1763
     15 O         143.0439  136.4053  154.9106 O.3     1  UNL1       -0.3480
     16 C         141.6722  136.0948  154.3891 C.3     1  UNL1        0.1489
     17 C         140.4612  136.4988  155.1767 C.3     1  UNL1        0.0782
     18 C         139.4086  141.4708  165.5354 C.3     1  UNL1        0.0851
     19 C         139.8968  141.1035  166.9054 C.3     1  UNL1        0.0096
     20 C         139.4138  139.8437  167.5609 C.3     1  UNL1        0.0005
     21 C         138.4427  138.9513  166.8464 C.3     1  UNL1        0.0005
     22 C         137.9545  139.3186  165.4765 C.3     1  UNL1        0.0096
     23 C         138.4375  140.5784  164.8210 C.3     1  UNL1        0.0853
     24 N         140.9559  142.6666  163.8249 N.am    1  UNL1       -0.2959
     25 C         139.8916  142.7306  164.8799 C.2     1  UNL1        0.2231
     26 O         139.3103  144.0543  165.2795 O.2     1  UNL1       -0.2751
     27 H         141.3375  141.7978  163.5626 H       1  UNL1        0.1502
     28 C         141.4389  143.9264  163.1694 C.3     1  UNL1        0.1364
     29 C         142.2716  145.1441  162.8977 C.3     1  UNL1        0.0353
     30 C         142.6136  144.2427  164.0469 C.3     1  UNL1        0.0353
     31 N         139.4249  144.1687  160.9592 N.1     1  UNL1       -0.1943
     32 C         140.4319  144.0476  162.0643 C.1     1  UNL1        0.0896
@<TRIPOS>BOND
     1    31    32    3
     2    32    28    1
     3    28    24    1
     4    24    25   am
     5    25    26    2
     6    18    25    1
     7    18    19    1
     8    19    20    1
     9    20    21    1
    10    21    22    1
    11    22    23    1
    12    23     1    1
    13     1     2    2
    14     1     3   am
    15     3     4    1
    16     4     5    1
    17     5     6    1
    18     6     9    1
    19     9    10   ar
    20    10    11   ar
    21    11    12   ar
    22    12    13   ar
    23    12    14    1
    24    14    15    1
    25    15    16    1
    26    16    17    1
    27     6     7    1
    28     7     8    1
    29    28    29    1
    30    29    30    1
    31    30    28    1
    32    23    18    1
    33     8     3    1
    34    13     9   ar
    35    17    11    1
    36    24    27    1
@<TRIPOS>MOLECULE
*****
 32 36 0 0 0
SMALL
GASTEIGER

@<TRIPOS>ATOM
      1 C         140.8231  142.2718  162.9924 C.2     1  UNL1        0.2257
      2 O         139.4477  142.7998  163.2743 O.2     1  UNL1       -0.2749
      3 N         141.0429  141.3227  161.8518 N.am    1  UNL1       -0.2760
      4 C         139.8874  140.9015  160.9932 C.3     1  UNL1        0.1149
      5 C         140.1072  139.9524  159.8526 C.3     1  UNL1        0.1141
      6 N         141.4826  139.4245  159.5707 N.pl3   1  UNL1       -0.2847
      7 C         142.6382  139.8456  160.4294 C.3     1  UNL1        0.1141
      8 C         142.4183  140.7947  161.5699 C.3     1  UNL1        0.1149
      9 C         141.7025  138.4754  158.4302 C.ar    1  UNL1        0.1625
     10 N         143.0195  137.8952  158.0073 N.ar    1  UNL1       -0.2286
     11 C         142.7749  137.0011  156.8280 C.ar    1  UNL1        0.0678
     12 C         141.3067  137.0286  156.5221 C.ar    1  UNL1        0.0531
     13 S         140.6439  137.9398  157.5123 S.2     1  UNL1       -0.0538
     14 C         140.7630  136.2204  155.3814 C.3     1  UNL1        0.1763
     15 O         141.6875  135.3847  154.5466 O.3     1  UNL1       -0.3480
     16 C         143.1557  135.3572  154.8525 C.3     1  UNL1        0.1489
     17 C         143.6994  136.1654  155.9932 C.3     1  UNL1        0.0782
     18 C         142.2448  141.9887  165.1484 C.3     1  UNL1        0.0851
     19 C         143.4004  142.4099  166.0071 C.3     1  UNL1        0.0096
     20 C         144.2897  143.5353  165.5683 C.3     1  UNL1        0.0005
     21 C         144.0235  144.2396  164.2710 C.3     1  UNL1        0.0005
     22 C         142.8680  143.8184  163.4123 C.3     1  UNL1        0.0096
     23 C         141.9786  142.6930  163.8510 C.3     1  UNL1        0.0853
     24 N         139.9869  141.1557  166.1270 N.am    1  UNL1       -0.2959
     25 C         141.3555  140.8633  165.5871 C.2     1  UNL1        0.2231
     26 O         141.8348  139.4456  165.4860 O.2     1  UNL1       -0.2751
     27 H         139.6723  142.0862  166.1933 H       1  UNL1        0.1502
     28 C         139.0975  140.0303  166.5657 C.3     1  UNL1        0.1364
     29 C         138.0686  138.9405  166.5039 C.3     1  UNL1        0.0353
     30 C         138.3867  139.7423  165.2767 C.3     1  UNL1        0.0353
     31 N         139.9016  139.8244  169.4486 N.1     1  UNL1       -0.1943
     32 C         139.4996  139.9274  168.0072 C.1     1  UNL1        0.0896
@<TRIPOS>BOND
     1    31    32    3
     2    32    28    1
     3    28    24    1
     4    24    25   am
     5    25    26    2
     6    18    25    1
     7    18    19    1
     8    19    20    1
     9    20    21    1
    10    21    22    1
    11    22    23    1
    12    23     1    1
    13     1     2    2
    14     1     3   am
    15     3     4    1
    16     4     5    1
    17     5     6    1
    18     6     9    1
    19     9    10   ar
    20    10    11   ar
    21    11    12   ar
    22    12    13   ar
    23    12    14    1
    24    14    15    1
    25    15    16    1
    26    16    17    1
    27     6     7    1
    28     7     8    1
    29    28    29    1
    30    29    30    1
    31    30    28    1
    32    23    18    1
    33     8     3    1
    34    13     9   ar
    35    17    11    1
    36    24    27    1
@<TRIPOS>MOLECULE
*****
 32 36 0 0 0
SMALL
GASTEIGER

@<TRIPOS>ATOM
      1 C         142.5484  143.3353  162.6787 C.2     1  UNL1        0.2257
      2 O         143.7935  144.1709  162.7197 O.2     1  UNL1       -0.2749
      3 N         142.4265  142.2194  161.6838 N.am    1  UNL1       -0.2760
      4 C         143.5496  141.9390  160.7299 C.3     1  UNL1        0.1149
      5 C         143.4277  140.8231  159.7350 C.3     1  UNL1        0.1141
      6 N         142.1826  139.9875  159.6940 N.pl3   1  UNL1       -0.2847
      7 C         141.0595  140.2679  160.6480 C.3     1  UNL1        0.1141
      8 C         141.1815  141.3838  161.6428 C.3     1  UNL1        0.1149
      9 C         142.0607  138.8716  158.6991 C.ar    1  UNL1        0.1625
     10 N         143.0502  137.7636  158.4913 N.ar    1  UNL1       -0.2286
     11 C         142.5289  136.8749  157.4011 C.ar    1  UNL1        0.0678
     12 C         141.2172  137.4337  156.9352 C.ar    1  UNL1        0.0531
     13 S         140.9278  138.6677  157.7374 S.2     1  UNL1       -0.0538
     14 C         140.4557  136.7467  155.8406 C.3     1  UNL1        0.1763
     15 O         141.0060  135.5009  155.2120 O.3     1  UNL1       -0.3480
     16 C         142.3177  134.9421  155.6779 C.3     1  UNL1        0.1489
     17 C         143.0792  135.6292  156.7725 C.3     1  UNL1        0.0782
     18 C         141.3074  142.8291  164.9044 C.3     1  UNL1        0.0851
     19 C         140.1842  143.1096  165.8583 C.3     1  UNL1        0.0096
     20 C         139.1791  144.1766  165.5405 C.3     1  UNL1        0.0005
     21 C         139.2970  144.9632  164.2687 C.3     1  UNL1        0.0005
     22 C         140.4201  144.6828  163.3148 C.3     1  UNL1        0.0096
     23 C         141.4253  143.6157  163.6326 C.3     1  UNL1        0.0853
     24 N         141.9320  140.3156  165.1095 N.am    1  UNL1       -0.2959
     25 C         142.3126  141.7621  165.2222 C.2     1  UNL1        0.2231
     26 O         143.6984  142.1416  165.6528 O.2     1  UNL1       -0.2751
     27 H         141.0224  140.0665  164.8268 H       1  UNL1        0.1502
     28 C         142.9371  139.2486  165.4273 C.3     1  UNL1        0.1364
     29 C         143.7530  138.2724  166.2219 C.3     1  UNL1        0.0353
     30 C         142.7412  139.1396  166.9104 C.3     1  UNL1        0.0353
     31 N         144.0272  138.7255  162.6818 N.1     1  UNL1       -0.1943
     32 C         143.4822  138.9870  164.0545 C.1     1  UNL1        0.0896
@<TRIPOS>BOND
     1    31    32    3
     2    32    28    1
     3    28    24    1
     4    24    25   am
     5    25    26    2
     6    18    25    1
     7    18    19    1
     8    19    20    1
     9    20    21    1
    10    21    22    1
    11    22    23    1
    12    23     1    1
    13     1     2    2
    14     1     3   am
    15     3     4    1
    16     4     5    1
    17     5     6    1
    18     6     9    1
    19     9    10   ar
    20    10    11   ar
    21    11    12   ar
    22    12    13   ar
    23    12    14    1
    24    14    15    1
    25    15    16    1
    26    16    17    1
    27     6     7    1
    28     7     8    1
    29    28    29    1
    30    29    30    1
    31    30    28    1
    32    23    18    1
    33     8     3    1
    34    13     9   ar
    35    17    11    1
    36    24    27    1
@<TRIPOS>MOLECULE
*****
 32 36 0 0 0
SMALL
GASTEIGER

@<TRIPOS>ATOM
      1 C         138.6773  140.3916  164.2395 C.2     1  UNL1        0.2257
      2 O         138.1467  139.4123  165.2441 O.2     1  UNL1       -0.2749
      3 N         139.1302  139.9128  162.8920 N.am    1  UNL1       -0.2760
      4 C         139.0524  138.4546  162.5492 C.3     1  UNL1        0.1149
      5 C         139.5053  137.9757  161.2017 C.3     1  UNL1        0.1141
      6 N         140.0359  138.9551  160.1971 N.pl3   1  UNL1       -0.2847
      7 C         140.1137  140.4133  160.5400 C.3     1  UNL1        0.1141
      8 C         139.6608  140.8921  161.8874 C.3     1  UNL1        0.1149
      9 C         140.4888  138.4762  158.8497 C.ar    1  UNL1        0.1625
     10 N         139.6000  138.0073  157.7361 N.ar    1  UNL1       -0.2286
     11 C         140.4719  137.6235  156.5774 C.ar    1  UNL1        0.0678
     12 C         141.8996  137.8552  156.9749 C.ar    1  UNL1        0.0531
     13 S         141.9100  138.3822  158.3792 S.2     1  UNL1       -0.0538
     14 C         143.0056  137.5564  156.0067 C.3     1  UNL1        0.1763
     15 O         142.6839  137.0259  154.6411 O.3     1  UNL1       -0.3480
     16 C         141.2562  136.7941  154.2436 C.3     1  UNL1        0.1489
     17 C         140.1502  137.0930  155.2117 C.3     1  UNL1        0.0782
     18 C         140.0152  142.4169  165.1658 C.3     1  UNL1        0.0851
     19 C         140.0929  143.8752  165.5086 C.3     1  UNL1        0.0096
     20 C         138.9106  144.7662  165.2680 C.3     1  UNL1        0.0005
     21 C         137.6504  144.1991  164.6846 C.3     1  UNL1        0.0005
     22 C         137.5727  142.7409  164.3417 C.3     1  UNL1        0.0096
     23 C         138.7551  141.8498  164.5823 C.3     1  UNL1        0.0853
     24 N         141.0404  140.2736  166.2171 N.am    1  UNL1       -0.2959
     25 C         141.1976  141.5259  165.4064 C.2     1  UNL1        0.2231
     26 O         142.5372  141.8870  164.8362 O.2     1  UNL1       -0.2751
     27 H         140.1612  140.0366  166.5912 H       1  UNL1        0.1502
     28 C         142.2228  139.3826  166.4577 C.3     1  UNL1        0.1364
     29 C         143.2746  138.3405  166.2171 C.3     1  UNL1        0.0353
     30 C         142.2574  138.6384  165.1558 C.3     1  UNL1        0.0353
     31 N         142.9750  140.2520  169.2286 N.1     1  UNL1       -0.1943
     32 C         142.5989  139.8173  167.8432 C.1     1  UNL1        0.0896
@<TRIPOS>BOND
     1    31    32    3
     2    32    28    1
     3    28    24    1
     4    24    25   am
     5    25    26    2
     6    18    25    1
     7    18    19    1
     8    19    20    1
     9    20    21    1
    10    21    22    1
    11    22    23    1
    12    23     1    1
    13     1     2    2
    14     1     3   am
    15     3     4    1
    16     4     5    1
    17     5     6    1
    18     6     9    1
    19     9    10   ar
    20    10    11   ar
    21    11    12   ar
    22    12    13   ar
    23    12    14    1
    24    14    15    1
    25    15    16    1
    26    16    17    1
    27     6     7    1
    28     7     8    1
    29    28    29    1
    30    29    30    1
    31    30    28    1
    32    23    18    1
    33     8     3    1
    34    13     9   ar
    35    17    11    1
    36    24    27    1
@<TRIPOS>MOLECULE
*****
 32 36 0 0 0
SMALL
GASTEIGER

@<TRIPOS>ATOM
      1 C         139.8425  142.9962  164.6729 C.2     1  UNL1        0.2257
      2 O         139.8728  143.9617  165.8205 O.2     1  UNL1       -0.2749
      3 N         139.9885  143.4977  163.2668 N.am    1  UNL1       -0.2760
      4 C         140.1649  144.9646  163.0082 C.3     1  UNL1        0.1149
      5 C         140.3110  145.4661  161.6021 C.3     1  UNL1        0.1141
      6 N         140.2807  144.5006  160.4545 N.pl3   1  UNL1       -0.2847
      7 C         140.1043  143.0337  160.7131 C.3     1  UNL1        0.1141
      8 C         139.9582  142.5322  162.1193 C.3     1  UNL1        0.1149
      9 C         140.4268  145.0021  159.0484 C.ar    1  UNL1        0.1625
     10 N         139.6044  146.0801  158.4069 N.ar    1  UNL1       -0.2286
     11 C         140.0903  146.2579  156.9989 C.ar    1  UNL1        0.0678
     12 C         141.2129  145.2897  156.7703 C.ar    1  UNL1        0.0531
     13 S         141.4209  144.5136  158.0369 S.2     1  UNL1       -0.0538
     14 C         141.9008  145.2399  155.4382 C.3     1  UNL1        0.1763
     15 O         141.4660  146.1583  154.3349 O.3     1  UNL1       -0.3480
     16 C         140.3433  147.1264  154.5635 C.3     1  UNL1        0.1489
     17 C         139.6554  147.1762  155.8955 C.3     1  UNL1        0.0782
     18 C         140.8676  140.6407  165.0608 C.3     1  UNL1        0.0851
     19 C         140.6912  139.1737  165.3194 C.3     1  UNL1        0.0096
     20 C         139.3132  138.5953  165.4487 C.3     1  UNL1        0.0005
     21 C         138.1117  139.4839  165.3194 C.3     1  UNL1        0.0005
     22 C         138.2881  140.9509  165.0608 C.3     1  UNL1        0.0096
     23 C         139.6661  141.5293  164.9315 C.3     1  UNL1        0.0853
     24 N         143.0006  141.0773  163.6431 N.am    1  UNL1       -0.2959
     25 C         142.2455  141.2190  164.9315 C.2     1  UNL1        0.2231
     26 O         142.8684  141.9391  166.0905 O.2     1  UNL1       -0.2751
     27 H         142.5917  140.6047  162.8824 H       1  UNL1        0.1502
     28 C         144.3785  141.6557  163.5138 C.3     1  UNL1        0.1364
     29 C         145.8734  141.7637  163.5756 C.3     1  UNL1        0.0353
     30 C         145.1936  140.5023  164.0190 C.3     1  UNL1        0.0353
     31 N         143.7055  144.3642  162.4136 N.1     1  UNL1       -0.1943
     32 C         144.0419  143.0100  162.9637 C.1     1  UNL1        0.0896
@<TRIPOS>BOND
     1    31    32    3
     2    32    28    1
     3    28    24    1
     4    24    25   am
     5    25    26    2
     6    18    25    1
     7    18    19    1
     8    19    20    1
     9    20    21    1
    10    21    22    1
    11    22    23    1
    12    23     1    1
    13     1     2    2
    14     1     3   am
    15     3     4    1
    16     4     5    1
    17     5     6    1
    18     6     9    1
    19     9    10   ar
    20    10    11   ar
    21    11    12   ar
    22    12    13   ar
    23    12    14    1
    24    14    15    1
    25    15    16    1
    26    16    17    1
    27     6     7    1
    28     7     8    1
    29    28    29    1
    30    29    30    1
    31    30    28    1
    32    23    18    1
    33     8     3    1
    34    13     9   ar
    35    17    11    1
    36    24    27    1
@<TRIPOS>MOLECULE
*****
 32 36 0 0 0
SMALL
GASTEIGER

@<TRIPOS>ATOM
      1 C         142.1915  143.0222  164.2864 C.2     1  UNL1        0.2257
      2 O         143.0753  143.0835  165.4968 O.2     1  UNL1       -0.2749
      3 N         142.7878  142.7628  162.9346 N.am    1  UNL1       -0.2760
      4 C         144.2679  142.5647  162.7933 C.3     1  UNL1        0.1149
      5 C         144.8642  142.3053  161.4416 C.3     1  UNL1        0.1141
      6 N         143.9804  142.2440  160.2312 N.pl3   1  UNL1       -0.2847
      7 C         142.5003  142.4422  160.3725 C.3     1  UNL1        0.1141
      8 C         141.9040  142.7016  161.7243 C.3     1  UNL1        0.1149
      9 C         144.5766  141.9846  158.8795 C.ar    1  UNL1        0.1625
     10 N         145.7283  142.7252  158.2670 N.ar    1  UNL1       -0.2286
     11 C         145.9894  142.1374  156.9119 C.ar    1  UNL1        0.0678
     12 C         144.9991  141.0335  156.6868 C.ar    1  UNL1        0.0531
     13 S         144.1260  140.9391  157.9029 S.2     1  UNL1       -0.0538
     14 C         145.0203  140.2569  155.4037 C.3     1  UNL1        0.1763
     15 O         146.0319  140.5842  154.3457 O.3     1  UNL1       -0.3480
     16 C         147.0222  141.6881  154.5707 C.3     1  UNL1        0.1489
     17 C         147.0010  142.4647  155.8538 C.3     1  UNL1        0.0782
     18 C         139.8153  142.0397  164.6580 C.3     1  UNL1        0.0851
     19 C         138.3351  142.2379  164.7993 C.3     1  UNL1        0.0096
     20 C         137.7511  143.6167  164.7104 C.3     1  UNL1        0.0005
     21 C         138.6473  144.7973  164.4801 C.3     1  UNL1        0.0005
     22 C         140.1274  144.5992  164.3388 C.3     1  UNL1        0.0096
     23 C         140.7114  143.2204  164.4277 C.3     1  UNL1        0.0853
     24 N         140.4066  139.7703  163.5400 N.am    1  UNL1       -0.2959
     25 C         140.3992  140.6610  164.7469 C.2     1  UNL1        0.2231
     26 O         140.9758  140.1729  166.0427 O.2     1  UNL1       -0.2751
     27 H         140.0281  140.0906  162.6895 H       1  UNL1        0.1502
     28 C         140.9905  138.3915  163.6289 C.3     1  UNL1        0.1364
     29 C         141.0883  136.9155  163.8777 C.3     1  UNL1        0.0353
     30 C         139.7934  137.6328  164.1201 C.3     1  UNL1        0.0353
     31 N         143.7904  138.9513  162.7084 N.1     1  UNL1       -0.1943
     32 C         142.3905  138.6714  163.1687 C.1     1  UNL1        0.0896
@<TRIPOS>BOND
     1    31    32    3
     2    32    28    1
     3    28    24    1
     4    24    25   am
     5    25    26    2
     6    18    25    1
     7    18    19    1
     8    19    20    1
     9    20    21    1
    10    21    22    1
    11    22    23    1
    12    23     1    1
    13     1     2    2
    14     1     3   am
    15     3     4    1
    16     4     5    1
    17     5     6    1
    18     6     9    1
    19     9    10   ar
    20    10    11   ar
    21    11    12   ar
    22    12    13   ar
    23    12    14    1
    24    14    15    1
    25    15    16    1
    26    16    17    1
    27     6     7    1
    28     7     8    1
    29    28    29    1
    30    29    30    1
    31    30    28    1
    32    23    18    1
    33     8     3    1
    34    13     9   ar
    35    17    11    1
    36    24    27    1
@<TRIPOS>MOLECULE
*****
 32 36 0 0 0
SMALL
GASTEIGER

@<TRIPOS>ATOM
      1 C         141.5517  139.6052  165.2394 C.2     1  UNL1        0.2257
      2 O         142.8309  139.2630  165.9439 O.2     1  UNL1       -0.2749
      3 N         141.5827  140.4291  163.9863 N.am    1  UNL1       -0.2760
      4 C         142.8930  140.9108  163.4377 C.3     1  UNL1        0.1149
      5 C         142.9241  141.7347  162.1846 C.3     1  UNL1        0.1141
      6 N         141.6448  142.0769  161.4802 N.pl3   1  UNL1       -0.2847
      7 C         140.3345  141.5953  162.0288 C.3     1  UNL1        0.1141
      8 C         140.3035  140.7714  163.2819 C.3     1  UNL1        0.1149
      9 C         141.6759  142.9008  160.2271 C.ar    1  UNL1        0.1625
     10 N         140.9111  144.1686  159.9862 N.ar    1  UNL1       -0.2286
     11 C         141.2397  144.6529  158.6051 C.ar    1  UNL1        0.0678
     12 C         142.2076  143.6845  157.9924 C.ar    1  UNL1        0.0531
     13 S         142.4771  142.6017  158.9948 S.2     1  UNL1       -0.0538
     14 C         142.7184  143.9138  156.6008 C.3     1  UNL1        0.1763
     15 O         142.2614  145.1115  155.8220 O.3     1  UNL1       -0.3480
     16 C         141.2935  146.0799  156.4348 C.3     1  UNL1        0.1489
     17 C         140.7827  145.8506  157.8263 C.3     1  UNL1        0.0782
     18 C         139.6255  139.8104  166.9708 C.3     1  UNL1        0.0851
     19 C         138.3151  139.3286  167.5194 C.3     1  UNL1        0.0096
     20 C         137.6206  138.1601  166.8852 C.3     1  UNL1        0.0005
     21 C         138.2365  137.4733  165.7024 C.3     1  UNL1        0.0005
     22 C         139.5468  137.9550  165.1538 C.3     1  UNL1        0.0096
     23 C         140.2413  139.1236  165.7880 C.3     1  UNL1        0.0853
     24 N         140.9159  140.8440  168.9749 N.am    1  UNL1       -0.2959
     25 C         140.3200  140.9789  167.6050 C.2     1  UNL1        0.2231
     26 O         140.4185  142.2823  166.8693 O.2     1  UNL1       -0.2751
     27 H         140.8512  139.9885  169.4578 H       1  UNL1        0.1502
     28 C         141.6104  142.0125  169.6091 C.3     1  UNL1        0.1364
     29 C         142.7048  142.9657  169.9882 C.3     1  UNL1        0.0353
     30 C         143.0030  141.7984  169.0947 C.3     1  UNL1        0.0353
     31 N         139.3075  143.2523  171.0786 N.1     1  UNL1       -0.1943
     32 C         140.4589  142.6324  170.3438 C.1     1  UNL1        0.0896
@<TRIPOS>BOND
     1    31    32    3
     2    32    28    1
     3    28    24    1
     4    24    25   am
     5    25    26    2
     6    18    25    1
     7    18    19    1
     8    19    20    1
     9    20    21    1
    10    21    22    1
    11    22    23    1
    12    23     1    1
    13     1     2    2
    14     1     3   am
    15     3     4    1
    16     4     5    1
    17     5     6    1
    18     6     9    1
    19     9    10   ar
    20    10    11   ar
    21    11    12   ar
    22    12    13   ar
    23    12    14    1
    24    14    15    1
    25    15    16    1
    26    16    17    1
    27     6     7    1
    28     7     8    1
    29    28    29    1
    30    29    30    1
    31    30    28    1
    32    23    18    1
    33     8     3    1
    34    13     9   ar
    35    17    11    1
    36    24    27    1
