@<TRIPOS>MOLECULE
*****
 34 38 0 0 0
SMALL
GASTEIGER

@<TRIPOS>ATOM
      1 C         142.8662  140.2113  165.0002 C.3     1  UNL1        0.1531
      2 C         141.9765  139.4346  164.0754 C.3     1  UNL1        0.1067
      3 N         142.3020  139.3543  162.6134 N.3     1  UNL1       -0.2665
      4 C         141.4123  138.5776  161.6885 C.3     1  UNL1        0.0940
      5 C         141.7377  138.4973  160.2265 C.3     1  UNL1        0.1107
      6 N         142.9528  139.1937  159.6892 N.am    1  UNL1       -0.2763
      7 C         143.2782  139.1133  158.2271 C.2     1  UNL1        0.2318
      8 O         144.4932  139.8097  157.6898 O.2     1  UNL1       -0.2744
      9 C         143.8424  139.9703  160.6140 C.3     1  UNL1        0.1119
     10 C         143.5170  140.0507  162.0761 C.3     1  UNL1        0.1075
     11 C         144.4067  140.8274  163.0009 C.3     1  UNL1        0.1601
     12 O         144.0812  140.9076  164.4629 O.3     1  UNL1       -0.3489
     13 C         141.4940  142.6417  166.1003 C.3     1  UNL1        0.0316
     14 C         141.8547  141.5068  167.0123 C.ar    1  UNL1       -0.0117
     15 C         142.5408  140.2916  166.4623 C.ar    1  UNL1        0.0027
     16 C         142.9015  139.1567  167.3743 C.ar    1  UNL1        0.0001
     17 C         142.5761  139.2369  168.8364 C.ar    1  UNL1        0.0301
     18 C         141.8900  140.4522  169.3865 C.ar    1  UNL1        0.1493
     19 F         141.5647  140.5325  170.8485 F       1  UNL1       -0.2035
     20 C         141.5293  141.5871  168.4744 C.ar    1  UNL1        0.0916
     21 C         140.8433  142.8023  169.0244 C.1     1  UNL1        0.1024
     22 N         140.1572  144.0175  169.5744 N.1     1  UNL1       -0.1908
     23 C         142.3885  138.3366  157.3023 C.3     1  UNL1        0.1309
     24 C         142.7691  136.9463  156.8875 C.ar    1  UNL1        0.0683
     25 C         142.9394  136.6174  155.4339 C.ar    1  UNL1        0.0168
     26 C         143.3199  135.2270  155.0191 C.ar    1  UNL1        0.0221
     27 C         143.5302  134.1655  156.0579 C.ar    1  UNL1        0.1053
     28 C         143.3599  134.4944  157.5114 C.ar    1  UNL1        0.1176
     29 N         142.9793  135.8848  157.9263 N.ar    1  UNL1       -0.2461
     30 N         143.9107  132.7752  155.6431 N.ar    1  UNL1       -0.1871
     31 C         143.2993  131.9919  154.5194 C.ar    1  UNL1        0.2259
     32 N         143.9802  130.6565  154.4610 N.ar    1  UNL1       -0.1045
     33 N         145.0124  130.6146  155.5486 N.ar    1  UNL1       -0.0222
     34 N         144.9695  131.9240  156.2792 N.ar    1  UNL1       -0.0384
@<TRIPOS>BOND
     1    13    14    1
     2    14    15   ar
     3     1    15    1
     4     1     2    1
     5     2     3    1
     6     3     4    1
     7     4     5    1
     8     5     6    1
     9     6     7   am
    10     7     8    2
    11     7    23    1
    12    23    24    1
    13    24    25   ar
    14    25    26   ar
    15    26    27   ar
    16    27    30    1
    17    30    31   ar
    18    31    32   ar
    19    32    33   ar
    20    33    34   ar
    21    27    28   ar
    22    28    29   ar
    23     6     9    1
    24    10     9    1
    25    10    11    1
    26    11    12    1
    27    15    16   ar
    28    16    17   ar
    29    17    18   ar
    30    18    19    1
    31    18    20   ar
    32    20    21    1
    33    21    22    3
    34    20    14   ar
    35    12     1    1
    36    10     3    1
    37    29    24   ar
    38    34    30   ar
@<TRIPOS>MOLECULE
*****
 34 38 0 0 0
SMALL
GASTEIGER

@<TRIPOS>ATOM
      1 C         139.5562  142.5078  158.4111 C.3     1  UNL1        0.1531
      2 C         138.7191  142.3821  159.6494 C.3     1  UNL1        0.1067
      3 N         138.9765  141.2666  160.6186 N.3     1  UNL1       -0.2665
      4 C         138.1394  141.1408  161.8570 C.3     1  UNL1        0.0940
      5 C         138.3968  140.0254  162.8262 C.3     1  UNL1        0.1107
      6 N         139.4914  139.0356  162.5572 N.am    1  UNL1       -0.2763
      7 C         139.7488  137.9201  163.5265 C.2     1  UNL1        0.2318
      8 O         140.8433  136.9304  163.2574 O.2     1  UNL1       -0.2744
      9 C         140.3285  139.1614  161.3189 C.3     1  UNL1        0.1119
     10 C         140.0711  140.2769  160.3496 C.3     1  UNL1        0.1075
     11 C         140.9081  140.4026  159.1113 C.3     1  UNL1        0.1601
     12 O         140.6507  141.5180  158.1421 O.3     1  UNL1       -0.3489
     13 C         137.6754  142.0924  156.1111 C.3     1  UNL1        0.0316
     14 C         138.3584  143.4156  156.2919 C.ar    1  UNL1       -0.0117
     15 C         139.2988  143.6233  157.4418 C.ar    1  UNL1        0.0027
     16 C         139.9818  144.9465  157.6226 C.ar    1  UNL1        0.0001
     17 C         139.7244  146.0619  156.6534 C.ar    1  UNL1        0.0301
     18 C         138.7840  145.8543  155.5033 C.ar    1  UNL1        0.1493
     19 F         138.5266  146.9697  154.5341 F       1  UNL1       -0.2035
     20 C         138.1010  144.5311  155.3226 C.ar    1  UNL1        0.0916
     21 C         137.1606  144.3233  154.1726 C.1     1  UNL1        0.1024
     22 N         136.2202  144.1156  153.0226 N.1     1  UNL1       -0.1908
     23 C         138.9117  137.7944  164.7648 C.3     1  UNL1        0.1309
     24 C         139.2527  138.5970  165.9852 C.ar    1  UNL1        0.0683
     25 C         138.2171  138.8258  167.0460 C.ar    1  UNL1        0.0168
     26 C         138.5581  139.6284  168.2664 C.ar    1  UNL1        0.0221
     27 C         139.9348  140.2021  168.4262 C.ar    1  UNL1        0.1053
     28 C         140.9705  139.9733  167.3655 C.ar    1  UNL1        0.1176
     29 N         140.6294  139.1707  166.1450 N.ar    1  UNL1       -0.2461
     30 N         140.2759  141.0047  169.6467 N.ar    1  UNL1       -0.1871
     31 C         141.6231  141.0843  170.3015 C.ar    1  UNL1        0.2259
     32 N         141.5094  141.9974  171.4862 N.ar    1  UNL1       -0.1045
     33 N         140.0919  142.4821  171.5635 N.ar    1  UNL1       -0.0222
     34 N         139.3296  141.8686  170.4267 N.ar    1  UNL1       -0.0384
@<TRIPOS>BOND
     1    13    14    1
     2    14    15   ar
     3     1    15    1
     4     1     2    1
     5     2     3    1
     6     3     4    1
     7     4     5    1
     8     5     6    1
     9     6     7   am
    10     7     8    2
    11     7    23    1
    12    23    24    1
    13    24    25   ar
    14    25    26   ar
    15    26    27   ar
    16    27    30    1
    17    30    31   ar
    18    31    32   ar
    19    32    33   ar
    20    33    34   ar
    21    27    28   ar
    22    28    29   ar
    23     6     9    1
    24    10     9    1
    25    10    11    1
    26    11    12    1
    27    15    16   ar
    28    16    17   ar
    29    17    18   ar
    30    18    19    1
    31    18    20   ar
    32    20    21    1
    33    21    22    3
    34    20    14   ar
    35    12     1    1
    36    10     3    1
    37    29    24   ar
    38    34    30   ar
@<TRIPOS>MOLECULE
*****
 34 38 0 0 0
SMALL
GASTEIGER

@<TRIPOS>ATOM
      1 C         140.6277  138.7609  158.2535 C.3     1  UNL1        0.1531
      2 C         140.1135  138.3000  159.5851 C.3     1  UNL1        0.1067
      3 N         140.9769  138.4222  160.8055 N.3     1  UNL1       -0.2665
      4 C         140.4628  137.9613  162.1372 C.3     1  UNL1        0.0940
      5 C         141.3262  138.0835  163.3577 C.3     1  UNL1        0.1107
      6 N         142.7038  138.6666  163.2465 N.am    1  UNL1       -0.2763
      7 C         143.5672  138.7888  164.4671 C.2     1  UNL1        0.2318
      8 O         144.9447  139.3719  164.3559 O.2     1  UNL1       -0.2744
      9 C         143.2179  139.1275  161.9149 C.3     1  UNL1        0.1119
     10 C         142.3545  139.0053  160.6944 C.3     1  UNL1        0.1075
     11 C         142.8686  139.4662  159.3628 C.3     1  UNL1        0.1601
     12 O         142.0052  139.3440  158.1424 O.3     1  UNL1       -0.3489
     13 C         138.9465  141.0820  157.3668 C.3     1  UNL1        0.0316
     14 C         138.9237  139.7992  156.5896 C.ar    1  UNL1       -0.0117
     15 C         139.7643  138.6387  157.0329 C.ar    1  UNL1        0.0027
     16 C         139.7415  137.3559  156.2558 C.ar    1  UNL1        0.0001
     17 C         138.8781  137.2337  155.0353 C.ar    1  UNL1        0.0301
     18 C         138.0375  138.3943  154.5919 C.ar    1  UNL1        0.1493
     19 F         137.1742  138.2720  153.3714 F       1  UNL1       -0.2035
     20 C         138.0603  139.6770  155.3691 C.ar    1  UNL1        0.0916
     21 C         137.2197  140.8376  154.9258 C.1     1  UNL1        0.1024
     22 N         136.3792  141.9981  154.4825 N.1     1  UNL1       -0.1908
     23 C         143.0530  138.3279  165.7987 C.3     1  UNL1        0.1309
     24 C         142.4018  139.3063  166.7306 C.ar    1  UNL1        0.0683
     25 C         141.2201  140.1077  166.2707 C.ar    1  UNL1        0.0168
     26 C         140.5688  141.0861  167.2027 C.ar    1  UNL1        0.0221
     27 C         141.0992  141.2631  168.5946 C.ar    1  UNL1        0.1053
     28 C         142.2808  140.4617  169.0545 C.ar    1  UNL1        0.1176
     29 N         142.9321  139.4833  168.1225 N.ar    1  UNL1       -0.2461
     30 N         140.4480  142.2415  169.5265 N.ar    1  UNL1       -0.1871
     31 C         140.6140  143.7320  169.4969 C.ar    1  UNL1        0.2259
     32 N         139.7849  144.3129  170.6039 N.ar    1  UNL1       -0.1045
     33 N         139.1065  143.1813  171.3177 N.ar    1  UNL1       -0.0222
     34 N         139.5162  141.9012  170.6518 N.ar    1  UNL1       -0.0384
@<TRIPOS>BOND
     1    13    14    1
     2    14    15   ar
     3     1    15    1
     4     1     2    1
     5     2     3    1
     6     3     4    1
     7     4     5    1
     8     5     6    1
     9     6     7   am
    10     7     8    2
    11     7    23    1
    12    23    24    1
    13    24    25   ar
    14    25    26   ar
    15    26    27   ar
    16    27    30    1
    17    30    31   ar
    18    31    32   ar
    19    32    33   ar
    20    33    34   ar
    21    27    28   ar
    22    28    29   ar
    23     6     9    1
    24    10     9    1
    25    10    11    1
    26    11    12    1
    27    15    16   ar
    28    16    17   ar
    29    17    18   ar
    30    18    19    1
    31    18    20   ar
    32    20    21    1
    33    21    22    3
    34    20    14   ar
    35    12     1    1
    36    10     3    1
    37    29    24   ar
    38    34    30   ar
@<TRIPOS>MOLECULE
*****
 34 38 0 0 0
SMALL
GASTEIGER

@<TRIPOS>ATOM
      1 C         142.4565  140.6171  163.8335 C.3     1  UNL1        0.1531
      2 C         141.5141  139.8272  162.9745 C.3     1  UNL1        0.1067
      3 N         141.8754  139.5194  161.5517 N.3     1  UNL1       -0.2665
      4 C         140.9330  138.7294  160.6926 C.3     1  UNL1        0.0940
      5 C         141.2943  138.4216  159.2697 C.3     1  UNL1        0.1107
      6 N         142.5980  138.9037  158.7058 N.am    1  UNL1       -0.2763
      7 C         142.9593  138.5959  157.2828 C.2     1  UNL1        0.2318
      8 O         144.2630  139.0780  156.7189 O.2     1  UNL1       -0.2744
      9 C         143.5404  139.6936  159.5648 C.3     1  UNL1        0.1119
     10 C         143.1791  140.0015  160.9878 C.3     1  UNL1        0.1075
     11 C         144.1215  140.7914  161.8468 C.3     1  UNL1        0.1601
     12 O         143.7602  141.0992  163.2697 O.3     1  UNL1       -0.3489
     13 C         143.2726  138.7412  166.0279 C.3     1  UNL1        0.0316
     14 C         142.5032  139.9870  166.3537 C.ar    1  UNL1       -0.0117
     15 C         142.0952  140.9249  165.2565 C.ar    1  UNL1        0.0027
     16 C         141.3258  142.1707  165.5823 C.ar    1  UNL1        0.0001
     17 C         140.9646  142.4786  167.0052 C.ar    1  UNL1        0.0301
     18 C         141.3726  141.5406  168.1024 C.ar    1  UNL1        0.1493
     19 F         141.0113  141.8485  169.5253 F       1  UNL1       -0.2035
     20 C         142.1419  140.2948  167.7766 C.ar    1  UNL1        0.0916
     21 C         142.5500  139.3569  168.8738 C.1     1  UNL1        0.1024
     22 N         142.9580  138.4190  169.9709 N.1     1  UNL1       -0.1908
     23 C         142.0169  137.8060  156.4238 C.3     1  UNL1        0.1309
     24 C         142.1338  136.3120  156.3600 C.ar    1  UNL1        0.0683
     25 C         141.3146  135.5372  155.3706 C.ar    1  UNL1        0.0168
     26 C         141.4315  134.0431  155.3067 C.ar    1  UNL1        0.0221
     27 C         142.3674  133.3238  156.2322 C.ar    1  UNL1        0.1053
     28 C         143.1865  134.0985  157.2216 C.ar    1  UNL1        0.1176
     29 N         143.0697  135.5926  157.2855 N.ar    1  UNL1       -0.2461
     30 N         142.4842  131.8297  156.1684 N.ar    1  UNL1       -0.1871
     31 C         141.6591  130.9167  155.3108 C.ar    1  UNL1        0.2259
     32 N         142.1116  129.5089  155.5633 N.ar    1  UNL1       -0.1045
     33 N         143.2164  129.5520  156.5771 N.ar    1  UNL1       -0.0222
     34 N         143.4467  130.9863  156.9510 N.ar    1  UNL1       -0.0384
@<TRIPOS>BOND
     1    13    14    1
     2    14    15   ar
     3     1    15    1
     4     1     2    1
     5     2     3    1
     6     3     4    1
     7     4     5    1
     8     5     6    1
     9     6     7   am
    10     7     8    2
    11     7    23    1
    12    23    24    1
    13    24    25   ar
    14    25    26   ar
    15    26    27   ar
    16    27    30    1
    17    30    31   ar
    18    31    32   ar
    19    32    33   ar
    20    33    34   ar
    21    27    28   ar
    22    28    29   ar
    23     6     9    1
    24    10     9    1
    25    10    11    1
    26    11    12    1
    27    15    16   ar
    28    16    17   ar
    29    17    18   ar
    30    18    19    1
    31    18    20   ar
    32    20    21    1
    33    21    22    3
    34    20    14   ar
    35    12     1    1
    36    10     3    1
    37    29    24   ar
    38    34    30   ar
@<TRIPOS>MOLECULE
*****
 34 38 0 0 0
SMALL
GASTEIGER

@<TRIPOS>ATOM
      1 C         142.2560  140.6725  165.6789 C.3     1  UNL1        0.1531
      2 C         142.3708  141.7436  164.6351 C.3     1  UNL1        0.1067
      3 N         142.6504  141.3737  163.2086 N.3     1  UNL1       -0.2665
      4 C         142.7652  142.4448  162.1647 C.3     1  UNL1        0.0940
      5 C         143.0448  142.0749  160.7382 C.3     1  UNL1        0.1107
      6 N         143.2095  140.6340  160.3555 N.am    1  UNL1       -0.2763
      7 C         143.4891  140.2641  158.9289 C.2     1  UNL1        0.2318
      8 O         143.6538  138.8231  158.5461 O.2     1  UNL1       -0.2744
      9 C         143.0947  139.5629  161.3993 C.3     1  UNL1        0.1119
     10 C         142.8151  139.9327  162.8259 C.3     1  UNL1        0.1075
     11 C         142.7003  138.8616  163.8696 C.3     1  UNL1        0.1601
     12 O         142.4207  139.2315  165.2962 O.3     1  UNL1       -0.3489
     13 C         139.7506  139.7053  167.0159 C.3     1  UNL1        0.0316
     14 C         140.7237  140.5588  167.7740 C.ar    1  UNL1       -0.0117
     15 C         141.9764  141.0423  167.1055 C.ar    1  UNL1        0.0027
     16 C         142.9495  141.8958  167.8635 C.ar    1  UNL1        0.0001
     17 C         142.6700  142.2656  169.2900 C.ar    1  UNL1        0.0301
     18 C         141.4172  141.7821  169.9586 C.ar    1  UNL1        0.1493
     19 F         141.1377  142.1519  171.3851 F       1  UNL1       -0.2035
     20 C         140.4441  140.9286  169.2006 C.ar    1  UNL1        0.0916
     21 C         139.1914  140.4450  169.8690 C.1     1  UNL1        0.1024
     22 N         137.9388  139.9614  170.5375 N.1     1  UNL1       -0.1908
     23 C         143.6039  141.3352  157.8851 C.3     1  UNL1        0.1309
     24 C         144.8975  141.5321  157.1517 C.ar    1  UNL1        0.0683
     25 C         145.1570  140.7877  155.8755 C.ar    1  UNL1        0.0168
     26 C         146.4505  140.9845  155.1421 C.ar    1  UNL1        0.0221
     27 C         147.4847  141.9258  155.6849 C.ar    1  UNL1        0.1053
     28 C         147.2253  142.6701  156.9610 C.ar    1  UNL1        0.1176
     29 N         145.9317  142.4733  157.6945 N.ar    1  UNL1       -0.2461
     30 N         148.7782  142.1226  154.9515 N.ar    1  UNL1       -0.1871
     31 C         148.9329  142.7012  153.5762 C.ar    1  UNL1        0.2259
     32 N         150.3946  142.7116  153.2393 N.ar    1  UNL1       -0.1045
     33 N         151.1433  142.1395  154.4065 N.ar    1  UNL1       -0.0222
     34 N         150.1444  141.7755  155.4646 N.ar    1  UNL1       -0.0384
@<TRIPOS>BOND
     1    13    14    1
     2    14    15   ar
     3     1    15    1
     4     1     2    1
     5     2     3    1
     6     3     4    1
     7     4     5    1
     8     5     6    1
     9     6     7   am
    10     7     8    2
    11     7    23    1
    12    23    24    1
    13    24    25   ar
    14    25    26   ar
    15    26    27   ar
    16    27    30    1
    17    30    31   ar
    18    31    32   ar
    19    32    33   ar
    20    33    34   ar
    21    27    28   ar
    22    28    29   ar
    23     6     9    1
    24    10     9    1
    25    10    11    1
    26    11    12    1
    27    15    16   ar
    28    16    17   ar
    29    17    18   ar
    30    18    19    1
    31    18    20   ar
    32    20    21    1
    33    21    22    3
    34    20    14   ar
    35    12     1    1
    36    10     3    1
    37    29    24   ar
    38    34    30   ar
@<TRIPOS>MOLECULE
*****
 34 38 0 0 0
SMALL
GASTEIGER

@<TRIPOS>ATOM
      1 C         138.5842  140.8867  157.5545 C.3     1  UNL1        0.1531
      2 C         137.7742  140.8107  158.8147 C.3     1  UNL1        0.1067
      3 N         138.2699  140.0028  159.9772 N.3     1  UNL1       -0.2665
      4 C         137.4598  139.9267  161.2375 C.3     1  UNL1        0.0940
      5 C         137.9555  139.1189  162.4000 C.3     1  UNL1        0.1107
      6 N         139.2613  138.3871  162.3025 N.am    1  UNL1       -0.2763
      7 C         139.7570  137.5792  163.4651 C.2     1  UNL1        0.2318
      8 O         141.0627  136.8475  163.3676 O.2     1  UNL1       -0.2744
      9 C         140.0713  138.4632  161.0423 C.3     1  UNL1        0.1119
     10 C         139.5756  139.2710  159.8797 C.3     1  UNL1        0.1075
     11 C         140.3857  139.3471  158.6195 C.3     1  UNL1        0.1601
     12 O         139.8900  140.1549  157.4570 O.3     1  UNL1       -0.3489
     13 C         139.2379  143.8089  157.3709 C.3     1  UNL1        0.0316
     14 C         138.4154  143.1556  156.3001 C.ar    1  UNL1       -0.0117
     15 C         138.0885  141.6946  156.3919 C.ar    1  UNL1        0.0027
     16 C         137.2660  141.0413  155.3210 C.ar    1  UNL1        0.0001
     17 C         136.7703  141.8491  154.1584 C.ar    1  UNL1        0.0301
     18 C         137.0971  143.3103  154.0666 C.ar    1  UNL1        0.1493
     19 F         136.6015  144.1181  152.9040 F       1  UNL1       -0.2035
     20 C         137.9197  143.9635  155.1374 C.ar    1  UNL1        0.0916
     21 C         138.2465  145.4246  155.0457 C.1     1  UNL1        0.1024
     22 N         138.5733  146.8856  154.9539 N.1     1  UNL1       -0.1908
     23 C         138.9469  137.5032  164.7253 C.3     1  UNL1        0.1309
     24 C         139.2412  138.4349  165.8634 C.ar    1  UNL1        0.0683
     25 C         138.2116  138.6652  166.9296 C.ar    1  UNL1        0.0168
     26 C         138.5059  139.5969  168.0677 C.ar    1  UNL1        0.0221
     27 C         139.8298  140.2983  168.1396 C.ar    1  UNL1        0.1053
     28 C         140.8594  140.0681  167.0734 C.ar    1  UNL1        0.1176
     29 N         140.5652  139.1363  165.9353 N.ar    1  UNL1       -0.2461
     30 N         140.1241  141.2300  169.2777 N.ar    1  UNL1       -0.1871
     31 C         140.5229  142.6710  169.1570 C.ar    1  UNL1        0.2259
     32 N         140.7165  143.2159  170.5411 N.ar    1  UNL1       -0.1045
     33 N         140.4374  142.1117  171.5172 N.ar    1  UNL1       -0.0222
     34 N         140.0713  140.8843  170.7364 N.ar    1  UNL1       -0.0384
@<TRIPOS>BOND
     1    13    14    1
     2    14    15   ar
     3     1    15    1
     4     1     2    1
     5     2     3    1
     6     3     4    1
     7     4     5    1
     8     5     6    1
     9     6     7   am
    10     7     8    2
    11     7    23    1
    12    23    24    1
    13    24    25   ar
    14    25    26   ar
    15    26    27   ar
    16    27    30    1
    17    30    31   ar
    18    31    32   ar
    19    32    33   ar
    20    33    34   ar
    21    27    28   ar
    22    28    29   ar
    23     6     9    1
    24    10     9    1
    25    10    11    1
    26    11    12    1
    27    15    16   ar
    28    16    17   ar
    29    17    18   ar
    30    18    19    1
    31    18    20   ar
    32    20    21    1
    33    21    22    3
    34    20    14   ar
    35    12     1    1
    36    10     3    1
    37    29    24   ar
    38    34    30   ar
@<TRIPOS>MOLECULE
*****
 34 38 0 0 0
SMALL
GASTEIGER

@<TRIPOS>ATOM
      1 C         142.3155  142.3726  165.8205 C.3     1  UNL1        0.1531
      2 C         143.3234  141.6584  164.9697 C.3     1  UNL1        0.1067
      3 N         143.4500  141.9963  163.5138 N.3     1  UNL1       -0.2665
      4 C         144.4580  141.2821  162.6629 C.3     1  UNL1        0.0940
      5 C         144.5846  141.6199  161.2070 C.3     1  UNL1        0.1107
      6 N         143.7031  142.6720  160.6018 N.am    1  UNL1       -0.2763
      7 C         143.8297  143.0098  159.1458 C.2     1  UNL1        0.2318
      8 O         142.9483  144.0619  158.5406 O.2     1  UNL1       -0.2744
      9 C         142.6951  143.3862  161.4526 C.3     1  UNL1        0.1119
     10 C         142.5685  143.0483  162.9086 C.3     1  UNL1        0.1075
     11 C         141.5606  143.7625  163.7593 C.3     1  UNL1        0.1601
     12 O         141.4340  143.4247  165.2153 O.3     1  UNL1       -0.3489
     13 C         139.7735  141.1702  166.8659 C.3     1  UNL1        0.0316
     14 C         140.9179  141.4336  167.7992 C.ar    1  UNL1       -0.0117
     15 C         142.1889  142.0348  167.2765 C.ar    1  UNL1        0.0027
     16 C         143.3333  142.2982  168.2097 C.ar    1  UNL1        0.0001
     17 C         143.2067  141.9604  169.6657 C.ar    1  UNL1        0.0301
     18 C         141.9357  141.3592  170.1885 C.ar    1  UNL1        0.1493
     19 F         141.8092  141.0214  171.6444 F       1  UNL1       -0.2035
     20 C         140.7913  141.0958  169.2552 C.ar    1  UNL1        0.0916
     21 C         139.5204  140.4946  169.7779 C.1     1  UNL1        0.1024
     22 N         138.2495  139.8934  170.3006 N.1     1  UNL1       -0.1908
     23 C         144.8377  142.2956  158.2950 C.3     1  UNL1        0.1309
     24 C         144.4360  141.0747  157.5219 C.ar    1  UNL1        0.0683
     25 C         143.4525  140.1056  158.1081 C.ar    1  UNL1        0.0168
     26 C         143.0508  138.8846  157.3350 C.ar    1  UNL1        0.0221
     27 C         143.6326  138.6326  155.9755 C.ar    1  UNL1        0.1053
     28 C         144.6161  139.6017  155.3893 C.ar    1  UNL1        0.1176
     29 N         145.0178  140.8227  156.1625 N.ar    1  UNL1       -0.2461
     30 N         143.2310  137.4117  155.2024 N.ar    1  UNL1       -0.1871
     31 C         143.6001  135.9964  155.5350 C.ar    1  UNL1        0.2259
     32 N         142.9869  135.1015  154.4990 N.ar    1  UNL1       -0.1045
     33 N         142.2387  135.9639  153.5260 N.ar    1  UNL1       -0.0222
     34 N         142.3895  137.3916  153.9607 N.ar    1  UNL1       -0.0384
@<TRIPOS>BOND
     1    13    14    1
     2    14    15   ar
     3     1    15    1
     4     1     2    1
     5     2     3    1
     6     3     4    1
     7     4     5    1
     8     5     6    1
     9     6     7   am
    10     7     8    2
    11     7    23    1
    12    23    24    1
    13    24    25   ar
    14    25    26   ar
    15    26    27   ar
    16    27    30    1
    17    30    31   ar
    18    31    32   ar
    19    32    33   ar
    20    33    34   ar
    21    27    28   ar
    22    28    29   ar
    23     6     9    1
    24    10     9    1
    25    10    11    1
    26    11    12    1
    27    15    16   ar
    28    16    17   ar
    29    17    18   ar
    30    18    19    1
    31    18    20   ar
    32    20    21    1
    33    21    22    3
    34    20    14   ar
    35    12     1    1
    36    10     3    1
    37    29    24   ar
    38    34    30   ar
@<TRIPOS>MOLECULE
*****
 34 38 0 0 0
SMALL
GASTEIGER

@<TRIPOS>ATOM
      1 C         142.2291  137.6625  157.1280 C.3     1  UNL1        0.1531
      2 C         141.0063  137.8112  157.9840 C.3     1  UNL1        0.1067
      3 N         141.0293  138.7265  159.1721 N.3     1  UNL1       -0.2665
      4 C         139.8066  138.8751  160.0282 C.3     1  UNL1        0.0940
      5 C         139.8296  139.7904  161.2163 C.3     1  UNL1        0.1107
      6 N         141.0754  140.5570  161.5484 N.am    1  UNL1       -0.2763
      7 C         141.0984  141.4724  162.7366 C.2     1  UNL1        0.2318
      8 O         142.3441  142.2390  163.0688 O.2     1  UNL1       -0.2744
      9 C         142.2981  140.4084  160.6925 C.3     1  UNL1        0.1119
     10 C         142.2751  139.4931  159.5043 C.3     1  UNL1        0.1075
     11 C         143.4979  139.3444  158.6483 C.3     1  UNL1        0.1601
     12 O         143.4748  138.4291  157.4601 O.3     1  UNL1       -0.3489
     13 C         143.3247  134.8792  157.3572 C.3     1  UNL1        0.0316
     14 C         142.7539  135.3556  156.0544 C.ar    1  UNL1       -0.0117
     15 C         142.2061  136.7472  155.9398 C.ar    1  UNL1        0.0027
     16 C         141.6352  137.2236  154.6370 C.ar    1  UNL1        0.0001
     17 C         141.6122  136.3084  153.4489 C.ar    1  UNL1        0.0301
     18 C         142.1601  134.9167  153.5634 C.ar    1  UNL1        0.1493
     19 F         142.1371  134.0014  152.3753 F       1  UNL1       -0.2035
     20 C         142.7309  134.4403  154.8662 C.ar    1  UNL1        0.0916
     21 C         143.2787  133.0486  154.9808 C.1     1  UNL1        0.1024
     22 N         143.8265  131.6570  155.0954 N.1     1  UNL1       -0.1908
     23 C         139.8756  141.6210  163.5926 C.3     1  UNL1        0.1309
     24 C         140.0001  141.6054  165.0873 C.ar    1  UNL1        0.0683
     25 C         140.3522  142.8639  165.8238 C.ar    1  UNL1        0.0168
     26 C         140.4767  142.8483  167.3185 C.ar    1  UNL1        0.0221
     27 C         140.2491  141.5743  168.0768 C.ar    1  UNL1        0.1053
     28 C         139.8970  140.3158  167.3404 C.ar    1  UNL1        0.1176
     29 N         139.7725  140.3314  165.8456 N.ar    1  UNL1       -0.2461
     30 N         140.3736  141.5587  169.5715 N.ar    1  UNL1       -0.1871
     31 C         140.4910  140.3369  170.4338 C.ar    1  UNL1        0.2259
     32 N         140.5925  140.7853  171.8617 N.ar    1  UNL1       -0.1045
     33 N         140.5378  142.2842  171.8819 N.ar    1  UNL1       -0.0222
     34 N         140.4025  142.7622  170.4665 N.ar    1  UNL1       -0.0384
@<TRIPOS>BOND
     1    13    14    1
     2    14    15   ar
     3     1    15    1
     4     1     2    1
     5     2     3    1
     6     3     4    1
     7     4     5    1
     8     5     6    1
     9     6     7   am
    10     7     8    2
    11     7    23    1
    12    23    24    1
    13    24    25   ar
    14    25    26   ar
    15    26    27   ar
    16    27    30    1
    17    30    31   ar
    18    31    32   ar
    19    32    33   ar
    20    33    34   ar
    21    27    28   ar
    22    28    29   ar
    23     6     9    1
    24    10     9    1
    25    10    11    1
    26    11    12    1
    27    15    16   ar
    28    16    17   ar
    29    17    18   ar
    30    18    19    1
    31    18    20   ar
    32    20    21    1
    33    21    22    3
    34    20    14   ar
    35    12     1    1
    36    10     3    1
    37    29    24   ar
    38    34    30   ar
@<TRIPOS>MOLECULE
*****
 34 38 0 0 0
SMALL
GASTEIGER

@<TRIPOS>ATOM
      1 C         141.5758  140.3108  162.9838 C.3     1  UNL1        0.1531
      2 C         142.5551  139.6758  162.0416 C.3     1  UNL1        0.1067
      3 N         142.0789  139.0990  160.7414 N.3     1  UNL1       -0.2665
      4 C         143.0582  138.4640  159.7992 C.3     1  UNL1        0.0940
      5 C         142.5820  137.8871  158.4990 C.3     1  UNL1        0.1107
      6 N         141.1265  137.9453  158.1410 N.am    1  UNL1       -0.2763
      7 C         140.6503  137.3684  156.8408 C.2     1  UNL1        0.2318
      8 O         139.1948  137.4265  156.4828 O.2     1  UNL1       -0.2744
      9 C         140.1472  138.5802  159.0832 C.3     1  UNL1        0.1119
     10 C         140.6234  139.1571  160.3835 C.3     1  UNL1        0.1075
     11 C         139.6441  139.7921  161.3256 C.3     1  UNL1        0.1601
     12 O         140.1203  140.3689  162.6258 O.3     1  UNL1       -0.3489
     13 C         141.7365  138.5752  165.4255 C.3     1  UNL1        0.0316
     14 C         142.1323  140.0199  165.5048 C.ar    1  UNL1       -0.0117
     15 C         142.0520  140.8876  164.2840 C.ar    1  UNL1        0.0027
     16 C         142.4478  142.3323  164.3633 C.ar    1  UNL1        0.0001
     17 C         142.9240  142.9092  165.6635 C.ar    1  UNL1        0.0301
     18 C         143.0043  142.0414  166.8844 C.ar    1  UNL1        0.1493
     19 F         143.4805  142.6183  168.1846 F       1  UNL1       -0.2035
     20 C         142.6085  140.5967  166.8051 C.ar    1  UNL1        0.0916
     21 C         142.6888  139.7290  168.0259 C.1     1  UNL1        0.1024
     22 N         142.7691  138.8612  169.2468 N.1     1  UNL1       -0.1908
     23 C         141.6296  136.7334  155.8986 C.3     1  UNL1        0.1309
     24 C         141.9028  135.2608  155.9810 C.ar    1  UNL1        0.0683
     25 C         142.9685  134.7461  156.9027 C.ar    1  UNL1        0.0168
     26 C         143.2417  133.2735  156.9851 C.ar    1  UNL1        0.0221
     27 C         142.4491  132.3156  156.1459 C.ar    1  UNL1        0.1053
     28 C         141.3835  132.8303  155.2243 C.ar    1  UNL1        0.1176
     29 N         141.1103  134.3029  155.1418 N.ar    1  UNL1       -0.2461
     30 N         142.7223  130.8430  156.2283 N.ar    1  UNL1       -0.1871
     31 C         143.7870  130.1888  157.0581 C.ar    1  UNL1        0.2259
     32 N         143.7014  128.7075  156.8380 N.ar    1  UNL1       -0.1045
     33 N         142.5838  128.4462  155.8721 N.ar    1  UNL1       -0.0222
     34 N         141.9787  129.7660  155.4953 N.ar    1  UNL1       -0.0384
@<TRIPOS>BOND
     1    13    14    1
     2    14    15   ar
     3     1    15    1
     4     1     2    1
     5     2     3    1
     6     3     4    1
     7     4     5    1
     8     5     6    1
     9     6     7   am
    10     7     8    2
    11     7    23    1
    12    23    24    1
    13    24    25   ar
    14    25    26   ar
    15    26    27   ar
    16    27    30    1
    17    30    31   ar
    18    31    32   ar
    19    32    33   ar
    20    33    34   ar
    21    27    28   ar
    22    28    29   ar
    23     6     9    1
    24    10     9    1
    25    10    11    1
    26    11    12    1
    27    15    16   ar
    28    16    17   ar
    29    17    18   ar
    30    18    19    1
    31    18    20   ar
    32    20    21    1
    33    21    22    3
    34    20    14   ar
    35    12     1    1
    36    10     3    1
    37    29    24   ar
    38    34    30   ar
