@<TRIPOS>MOLECULE
*****
 21 22 0 0 0
SMALL
GASTEIGER

@<TRIPOS>ATOM
      1 C         138.0106  140.9427  163.4062 C.3     1  UNL1        0.1561
      2 O         136.5783  141.3441  163.2125 O.3     1  UNL1       -0.3780
      3 H         136.1402  141.4056  164.0757 H       1  UNL1        0.2109
      4 C         138.5429  140.7064  164.7885 C.ar    1  UNL1        0.0168
      5 C         138.1789  139.4534  165.5284 C.ar    1  UNL1       -0.0002
      6 C         138.7112  139.2172  166.9107 C.ar    1  UNL1        0.0112
      7 C         139.6075  140.2339  167.5531 C.ar    1  UNL1        0.0585
      8 CL        140.1399  139.9976  168.9355 Cl      1  UNL1       -0.0822
      9 C         139.9716  141.4869  166.8133 C.ar    1  UNL1        0.0225
     10 C         139.4393  141.7232  165.4310 C.ar    1  UNL1        0.0568
     11 CL        139.8033  142.9762  164.6911 Cl      1  UNL1       -0.0825
     12 C         138.9105  140.7776  162.2176 C.3     1  UNL1        0.1424
     13 C         143.4822  138.1364  162.1459 C.3     1  UNL1        0.0538
     14 C         142.0151  138.4489  162.1525 C.ar    1  UNL1        0.0794
     15 C         141.4056  139.8189  162.1933 C.ar    1  UNL1        0.0930
     16 N         139.9137  139.6629  162.1854 N.ar    1  UNL1       -0.2961
     17 C         139.6012  138.1965  162.1398 C.ar    1  UNL1        0.1945
     18 N         138.2306  137.5875  162.1184 N.pl3   1  UNL1       -0.3288
     19 N         140.8999  137.4462  162.1195 N.ar    1  UNL1       -0.2183
     20 H         137.4344  138.1663  162.1345 H       1  UNL1        0.1451
     21 H         138.1272  136.6089  162.0881 H       1  UNL1        0.1451
@<TRIPOS>BOND
     1    13    14    1
     2    14    15   ar
     3    15    16   ar
     4    16    12    1
     5    12     1    1
     6     1     2    1
     7     1     4    1
     8     4     5   ar
     9     5     6   ar
    10     6     7   ar
    11     7     8    1
    12     7     9   ar
    13     9    10   ar
    14    10    11    1
    15    16    17   ar
    16    17    18    1
    17    17    19   ar
    18    19    14   ar
    19    10     4   ar
    20     2     3    1
    21    18    20    1
    22    18    21    1
@<TRIPOS>MOLECULE
*****
 21 22 0 0 0
SMALL
GASTEIGER

@<TRIPOS>ATOM
      1 C         140.5266  138.1566  163.2091 C.3     1  UNL1        0.1561
      2 O         141.1336  136.7982  163.0191 O.3     1  UNL1       -0.3780
      3 H         141.2006  136.3511  163.8773 H       1  UNL1        0.2109
      4 C         140.1323  138.6167  164.5813 C.ar    1  UNL1        0.0168
      5 C         138.7523  138.3371  165.0984 C.ar    1  UNL1       -0.0002
      6 C         138.3580  138.7972  166.4706 C.ar    1  UNL1        0.0112
      7 C         139.3439  139.5367  167.3257 C.ar    1  UNL1        0.0585
      8 CL        138.9496  139.9967  168.6980 Cl      1  UNL1       -0.0822
      9 C         140.7239  139.8162  166.8087 C.ar    1  UNL1        0.0225
     10 C         141.1181  139.3562  165.4365 C.ar    1  UNL1        0.0568
     11 CL        142.4982  139.6357  164.9194 Cl      1  UNL1       -0.0825
     12 C         140.3137  139.0550  162.0269 C.3     1  UNL1        0.1424
     13 C         138.2325  143.8526  162.7569 C.3     1  UNL1        0.0538
     14 C         138.3762  142.3920  162.4474 C.ar    1  UNL1        0.0794
     15 C         139.6508  141.6022  162.4932 C.ar    1  UNL1        0.0930
     16 N         139.3328  140.1867  162.1119 N.ar    1  UNL1       -0.2961
     17 C         137.8619  140.1016  161.8305 C.ar    1  UNL1        0.1945
     18 N         137.1137  138.8699  161.4148 N.pl3   1  UNL1       -0.3288
     19 N         137.2707  141.4645  162.0379 N.ar    1  UNL1       -0.2183
     20 H         137.5926  138.0168  161.3044 H       1  UNL1        0.1451
     21 H         136.1437  138.9145  161.2524 H       1  UNL1        0.1451
@<TRIPOS>BOND
     1    13    14    1
     2    14    15   ar
     3    15    16   ar
     4    16    12    1
     5    12     1    1
     6     1     2    1
     7     1     4    1
     8     4     5   ar
     9     5     6   ar
    10     6     7   ar
    11     7     8    1
    12     7     9   ar
    13     9    10   ar
    14    10    11    1
    15    16    17   ar
    16    17    18    1
    17    17    19   ar
    18    19    14   ar
    19    10     4   ar
    20     2     3    1
    21    18    20    1
    22    18    21    1
@<TRIPOS>MOLECULE
*****
 21 22 0 0 0
SMALL
GASTEIGER

@<TRIPOS>ATOM
      1 C         145.1951  141.5566  163.5498 C.3     1  UNL1        0.1561
      2 O         146.5572  141.8204  162.9799 O.3     1  UNL1       -0.3780
      3 H         146.5490  142.6628  162.4990 H       1  UNL1        0.2109
      4 C         144.0851  142.5406  163.3263 C.ar    1  UNL1        0.0168
      5 C         143.2145  142.4256  162.1103 C.ar    1  UNL1       -0.0002
      6 C         142.1046  143.4096  161.8869 C.ar    1  UNL1        0.0112
      7 C         141.8653  144.5085  162.8795 C.ar    1  UNL1        0.0585
      8 CL        140.7554  145.4925  162.6560 Cl      1  UNL1       -0.0822
      9 C         142.7360  144.6235  164.0955 C.ar    1  UNL1        0.0225
     10 C         143.8459  143.6395  164.3189 C.ar    1  UNL1        0.0568
     11 CL        144.7166  143.7545  165.5350 Cl      1  UNL1       -0.0825
     12 C         144.9428  140.3090  164.3433 C.3     1  UNL1        0.1424
     13 C         140.4960  137.4717  164.5825 C.3     1  UNL1        0.0538
     14 C         141.7646  138.0962  164.0818 C.ar    1  UNL1        0.0794
     15 C         142.6588  139.0185  164.8563 C.ar    1  UNL1        0.0930
     16 N         143.8085  139.4003  163.9718 N.ar    1  UNL1       -0.2961
     17 C         143.6249  138.7141  162.6507 C.ar    1  UNL1        0.1945
     18 N         144.5433  138.8161  161.4691 N.pl3   1  UNL1       -0.3288
     19 N         142.3617  137.9081  162.7186 N.ar    1  UNL1       -0.2183
     20 H         145.3529  139.3737  161.5216 H       1  UNL1        0.1451
     21 H         144.3364  138.3253  160.6411 H       1  UNL1        0.1451
@<TRIPOS>BOND
     1    13    14    1
     2    14    15   ar
     3    15    16   ar
     4    16    12    1
     5    12     1    1
     6     1     2    1
     7     1     4    1
     8     4     5   ar
     9     5     6   ar
    10     6     7   ar
    11     7     8    1
    12     7     9   ar
    13     9    10   ar
    14    10    11    1
    15    16    17   ar
    16    17    18    1
    17    17    19   ar
    18    19    14   ar
    19    10     4   ar
    20     2     3    1
    21    18    20    1
    22    18    21    1
@<TRIPOS>MOLECULE
*****
 21 22 0 0 0
SMALL
GASTEIGER

@<TRIPOS>ATOM
      1 C         141.1930  144.4569  163.2917 C.3     1  UNL1        0.1561
      2 O         141.3931  145.9424  163.3507 O.3     1  UNL1       -0.3780
      3 H         141.7650  146.1844  164.2133 H       1  UNL1        0.2109
      4 C         141.5599  143.6033  164.4693 C.ar    1  UNL1        0.0168
      5 C         142.9027  142.9371  164.5234 C.ar    1  UNL1       -0.0002
      6 C         143.2695  142.0835  165.7010 C.ar    1  UNL1        0.0112
      7 C         142.2935  141.8961  166.8245 C.ar    1  UNL1        0.0585
      8 CL        142.6604  141.0424  168.0021 Cl      1  UNL1       -0.0822
      9 C         140.9507  142.5623  166.7704 C.ar    1  UNL1        0.0225
     10 C         140.5838  143.4159  165.5928 C.ar    1  UNL1        0.0568
     11 CL        139.2409  144.0821  165.5387 Cl      1  UNL1       -0.0825
     12 C         140.6259  143.8252  162.0550 C.3     1  UNL1        0.1424
     13 C         137.9745  139.2619  162.2223 C.3     1  UNL1        0.0538
     14 C         138.2952  140.7271  162.2432 C.ar    1  UNL1        0.0794
     15 C         139.6572  141.3340  162.0790 C.ar    1  UNL1        0.0930
     16 N         139.5139  142.8246  162.1664 N.ar    1  UNL1       -0.2961
     17 C         138.0635  143.1389  162.3845 C.ar    1  UNL1        0.1945
     18 N         137.4706  144.5091  162.5297 N.pl3   1  UNL1       -0.3288
     19 N         137.3103  141.8426  162.4321 N.ar    1  UNL1       -0.2183
     20 H         138.0501  145.3036  162.4840 H       1  UNL1        0.1451
     21 H         136.5019  144.6138  162.6707 H       1  UNL1        0.1451
@<TRIPOS>BOND
     1    13    14    1
     2    14    15   ar
     3    15    16   ar
     4    16    12    1
     5    12     1    1
     6     1     2    1
     7     1     4    1
     8     4     5   ar
     9     5     6   ar
    10     6     7   ar
    11     7     8    1
    12     7     9   ar
    13     9    10   ar
    14    10    11    1
    15    16    17   ar
    16    17    18    1
    17    17    19   ar
    18    19    14   ar
    19    10     4   ar
    20     2     3    1
    21    18    20    1
    22    18    21    1
@<TRIPOS>MOLECULE
*****
 21 22 0 0 0
SMALL
GASTEIGER

@<TRIPOS>ATOM
      1 C         140.9809  144.9529  163.6136 C.3     1  UNL1        0.1561
      2 O         140.9059  146.1278  162.6840 O.3     1  UNL1       -0.3780
      3 H         141.7250  146.1841  162.1674 H       1  UNL1        0.2109
      4 C         142.2048  144.0858  163.6291 C.ar    1  UNL1        0.0168
      5 C         143.2838  144.3294  164.6422 C.ar    1  UNL1       -0.0002
      6 C         144.5076  143.4623  164.6578 C.ar    1  UNL1        0.0112
      7 C         144.6525  142.3515  163.6602 C.ar    1  UNL1        0.0585
      8 CL        145.8764  141.4843  163.6757 Cl      1  UNL1       -0.0822
      9 C         143.5735  142.1079  162.6470 C.ar    1  UNL1        0.0225
     10 C         142.3497  142.9750  162.6315 C.ar    1  UNL1        0.0568
     11 CL        141.2707  142.7314  161.6184 Cl      1  UNL1       -0.0825
     12 C         139.8321  144.6452  164.5275 C.3     1  UNL1        0.1424
     13 C         138.1967  139.7069  165.4334 C.3     1  UNL1        0.0538
     14 C         138.3550  141.0679  164.8230 C.ar    1  UNL1        0.0794
     15 C         139.2702  142.1519  165.3105 C.ar    1  UNL1        0.0930
     16 N         139.1067  143.3378  164.4065 N.ar    1  UNL1       -0.2961
     17 C         138.0907  142.9867  163.3604 C.ar    1  UNL1        0.1945
     18 N         137.6216  143.8814  162.2516 N.pl3   1  UNL1       -0.3288
     19 N         137.6261  141.5839  163.6177 N.ar    1  UNL1       -0.2183
     20 H         137.9878  144.7912  162.1649 H       1  UNL1        0.1451
     21 H         136.9475  143.5589  161.6107 H       1  UNL1        0.1451
@<TRIPOS>BOND
     1    13    14    1
     2    14    15   ar
     3    15    16   ar
     4    16    12    1
     5    12     1    1
     6     1     2    1
     7     1     4    1
     8     4     5   ar
     9     5     6   ar
    10     6     7   ar
    11     7     8    1
    12     7     9   ar
    13     9    10   ar
    14    10    11    1
    15    16    17   ar
    16    17    18    1
    17    17    19   ar
    18    19    14   ar
    19    10     4   ar
    20     2     3    1
    21    18    20    1
    22    18    21    1
@<TRIPOS>MOLECULE
*****
 21 22 0 0 0
SMALL
GASTEIGER

@<TRIPOS>ATOM
      1 C         138.8982  144.7240  164.6311 C.3     1  UNL1        0.1561
      2 O         138.4277  145.4786  165.8390 O.3     1  UNL1       -0.3780
      3 H         139.1736  145.6200  166.4428 H       1  UNL1        0.2109
      4 C         140.3372  144.3164  164.5149 C.ar    1  UNL1        0.0168
      5 C         141.2805  145.1258  163.6753 C.ar    1  UNL1       -0.0002
      6 C         142.7194  144.7182  163.5592 C.ar    1  UNL1        0.0112
      7 C         143.2149  143.5012  164.2826 C.ar    1  UNL1        0.0585
      8 CL        144.6538  143.0936  164.1664 Cl      1  UNL1       -0.0822
      9 C         142.2715  142.6918  165.1222 C.ar    1  UNL1        0.0225
     10 C         140.8327  143.0994  165.2383 C.ar    1  UNL1        0.0568
     11 CL        139.8892  142.2899  166.0779 Cl      1  UNL1       -0.0825
     12 C         137.9299  144.3770  163.5394 C.3     1  UNL1        0.1424
     13 C         137.8240  139.3169  162.0341 C.3     1  UNL1        0.0538
     14 C         138.0709  140.7964  162.0476 C.ar    1  UNL1        0.0794
     15 C         137.6800  141.7456  163.1415 C.ar    1  UNL1        0.0930
     16 N         138.1196  143.1222  162.7395 N.ar    1  UNL1       -0.2961
     17 C         138.7821  143.0239  161.3973 C.ar    1  UNL1        0.1945
     18 N         139.3712  144.1631  160.6194 N.pl3   1  UNL1       -0.3288
     19 N         138.7520  141.5865  160.9697 N.ar    1  UNL1       -0.2183
     20 H         139.3424  145.0764  160.9858 H       1  UNL1        0.1451
     21 H         139.7867  143.9975  159.7424 H       1  UNL1        0.1451
@<TRIPOS>BOND
     1    13    14    1
     2    14    15   ar
     3    15    16   ar
     4    16    12    1
     5    12     1    1
     6     1     2    1
     7     1     4    1
     8     4     5   ar
     9     5     6   ar
    10     6     7   ar
    11     7     8    1
    12     7     9   ar
    13     9    10   ar
    14    10    11    1
    15    16    17   ar
    16    17    18    1
    17    17    19   ar
    18    19    14   ar
    19    10     4   ar
    20     2     3    1
    21    18    20    1
    22    18    21    1
@<TRIPOS>MOLECULE
*****
 21 22 0 0 0
SMALL
GASTEIGER

@<TRIPOS>ATOM
      1 C         143.0227  144.0124  162.6210 C.3     1  UNL1        0.1561
      2 O         143.9681  145.1763  162.5812 O.3     1  UNL1       -0.3780
      3 H         143.5526  145.9449  163.0025 H       1  UNL1        0.2109
      4 C         141.6703  144.1659  163.2515 C.ar    1  UNL1        0.0168
      5 C         141.4319  143.6672  164.6459 C.ar    1  UNL1       -0.0002
      6 C         140.0795  143.8208  165.2764 C.ar    1  UNL1        0.0112
      7 C         138.9656  144.4730  164.5124 C.ar    1  UNL1        0.0585
      8 CL        137.6132  144.6265  165.1430 Cl      1  UNL1       -0.0822
      9 C         139.2039  144.9717  163.1180 C.ar    1  UNL1        0.0225
     10 C         140.5563  144.8182  162.4876 C.ar    1  UNL1        0.0568
     11 CL        140.7947  145.3169  161.0931 Cl      1  UNL1       -0.0825
     12 C         143.4296  142.6951  162.0303 C.3     1  UNL1        0.1424
     13 C         142.6224  138.2998  164.8430 C.3     1  UNL1        0.0538
     14 C         143.2846  139.4905  164.2155 C.ar    1  UNL1        0.0794
     15 C         142.6252  140.4946  163.3171 C.ar    1  UNL1        0.0930
     16 N         143.6557  141.5107  162.9226 N.ar    1  UNL1       -0.2961
     17 C         144.9519  141.1347  163.5771 C.ar    1  UNL1        0.1945
     18 N         146.2496  141.8769  163.4541 N.pl3   1  UNL1       -0.3288
     19 N         144.7226  139.8861  164.3762 N.ar    1  UNL1       -0.2183
     20 H         146.3006  142.6912  162.9032 H       1  UNL1        0.1451
     21 H         147.0503  141.5497  163.9244 H       1  UNL1        0.1451
@<TRIPOS>BOND
     1    13    14    1
     2    14    15   ar
     3    15    16   ar
     4    16    12    1
     5    12     1    1
     6     1     2    1
     7     1     4    1
     8     4     5   ar
     9     5     6   ar
    10     6     7   ar
    11     7     8    1
    12     7     9   ar
    13     9    10   ar
    14    10    11    1
    15    16    17   ar
    16    17    18    1
    17    17    19   ar
    18    19    14   ar
    19    10     4   ar
    20     2     3    1
    21    18    20    1
    22    18    21    1
@<TRIPOS>MOLECULE
*****
 21 22 0 0 0
SMALL
GASTEIGER

@<TRIPOS>ATOM
      1 C         144.6891  141.7951  164.3737 C.3     1  UNL1        0.1561
      2 O         146.0795  141.7709  163.8113 O.3     1  UNL1       -0.3780
      3 H         146.2462  140.9092  163.3983 H       1  UNL1        0.2109
      4 C         143.8050  140.5905  164.2403 C.ar    1  UNL1        0.0168
      5 C         143.7204  139.5949  165.3590 C.ar    1  UNL1       -0.0002
      6 C         142.8364  138.3904  165.2256 C.ar    1  UNL1        0.0112
      7 C         142.0371  138.1817  163.9736 C.ar    1  UNL1        0.0585
      8 CL        141.1530  136.9771  163.8403 Cl      1  UNL1       -0.0822
      9 C         142.1218  139.1773  162.8550 C.ar    1  UNL1        0.0225
     10 C         143.0057  140.3818  162.9883 C.ar    1  UNL1        0.0568
     11 CL        143.0905  141.3775  161.8696 Cl      1  UNL1       -0.0825
     12 C         144.1827  143.0237  165.0693 C.3     1  UNL1        0.1424
     13 C         139.1182  144.4207  164.5399 C.3     1  UNL1        0.0538
     14 C         140.6031  144.3380  164.3448 C.ar    1  UNL1        0.0794
     15 C         141.5452  143.4562  165.1097 C.ar    1  UNL1        0.0930
     16 N         142.9310  143.6960  164.5881 N.ar    1  UNL1       -0.2961
     17 C         142.8455  144.7259  163.5009 C.ar    1  UNL1        0.1945
     18 N         143.9966  145.2643  162.7041 N.pl3   1  UNL1       -0.3288
     19 N         141.4068  145.1227  163.3505 N.ar    1  UNL1       -0.2183
     20 H         144.9098  144.9398  162.8774 H       1  UNL1        0.1451
     21 H         143.8389  145.9423  162.0078 H       1  UNL1        0.1451
@<TRIPOS>BOND
     1    13    14    1
     2    14    15   ar
     3    15    16   ar
     4    16    12    1
     5    12     1    1
     6     1     2    1
     7     1     4    1
     8     4     5   ar
     9     5     6   ar
    10     6     7   ar
    11     7     8    1
    12     7     9   ar
    13     9    10   ar
    14    10    11    1
    15    16    17   ar
    16    17    18    1
    17    17    19   ar
    18    19    14   ar
    19    10     4   ar
    20     2     3    1
    21    18    20    1
    22    18    21    1
@<TRIPOS>MOLECULE
*****
 21 22 0 0 0
SMALL
GASTEIGER

@<TRIPOS>ATOM
      1 C         139.6808  140.6157  165.3513 C.3     1  UNL1        0.1561
      2 O         138.3383  140.0030  165.6200 O.3     1  UNL1       -0.3780
      3 H         138.2570  139.8044  166.5659 H       1  UNL1        0.2109
      4 C         140.6477  140.8275  166.4784 C.ar    1  UNL1        0.0168
      5 C         141.4901  139.6872  166.9682 C.ar    1  UNL1       -0.0002
      6 C         142.4570  139.8990  168.0953 C.ar    1  UNL1        0.0112
      7 C         142.5813  141.2512  168.7325 C.ar    1  UNL1        0.0585
      8 CL        143.5482  141.4630  169.8597 Cl      1  UNL1       -0.0822
      9 C         141.7389  142.3915  168.2427 C.ar    1  UNL1        0.0225
     10 C         140.7721  142.1797  167.1157 C.ar    1  UNL1        0.0568
     11 CL        139.9296  143.3200  166.6258 Cl      1  UNL1       -0.0825
     12 C         140.0565  141.0165  163.9555 C.3     1  UNL1        0.1424
     13 C         139.5581  145.8571  161.9057 C.3     1  UNL1        0.0538
     14 C         139.2380  144.4789  162.4040 C.ar    1  UNL1        0.0794
     15 C         140.2176  143.5002  162.9807 C.ar    1  UNL1        0.0930
     16 N         139.4670  142.2540  163.3462 N.ar    1  UNL1       -0.2961
     17 C         138.0236  142.4624  162.9954 C.ar    1  UNL1        0.1945
     18 N         136.9163  141.4700  163.1923 N.pl3   1  UNL1       -0.3288
     19 N         137.8820  143.8375  162.4131 N.ar    1  UNL1       -0.2183
     20 H         137.1097  140.5880  163.5847 H       1  UNL1        0.1451
     21 H         135.9961  141.7005  162.9291 H       1  UNL1        0.1451
@<TRIPOS>BOND
     1    13    14    1
     2    14    15   ar
     3    15    16   ar
     4    16    12    1
     5    12     1    1
     6     1     2    1
     7     1     4    1
     8     4     5   ar
     9     5     6   ar
    10     6     7   ar
    11     7     8    1
    12     7     9   ar
    13     9    10   ar
    14    10    11    1
    15    16    17   ar
    16    17    18    1
    17    17    19   ar
    18    19    14   ar
    19    10     4   ar
    20     2     3    1
    21    18    20    1
    22    18    21    1
