@<TRIPOS>MOLECULE
*****
 25 27 0 0 0
SMALL
GASTEIGER

@<TRIPOS>ATOM
      1 N         137.8646  141.3696  162.8529 N.ar    1  UNL1       -0.3165
      2 C         137.5960  140.4787  161.6765 C.ar    1  UNL1        0.0779
      3 C         137.9564  139.0756  162.0658 C.ar    1  UNL1        0.0392
      4 C         138.4477  139.0994  163.4829 C.ar    1  UNL1        0.0985
      5 N         138.9394  138.0133  164.3931 N.ar    1  UNL1       -0.2423
      6 C         139.3743  138.3450  165.7898 C.ar    1  UNL1        0.0989
      7 C         139.3176  139.7628  166.2762 C.ar    1  UNL1        0.0221
      8 C         138.8259  140.8489  165.3660 C.ar    1  UNL1        0.0203
      9 C         138.3909  140.5172  163.9693 C.ar    1  UNL1        0.0782
     10 C         139.7526  140.0944  167.6730 C.ar    1  UNL1        0.0207
     11 C         138.8287  139.8392  168.8268 C.ar    1  UNL1        0.0989
     12 N         139.2637  140.1708  170.2235 N.ar    1  UNL1       -0.2424
     13 C         140.6226  140.7577  170.4664 C.ar    1  UNL1        0.1027
     14 C         141.5465  141.0129  169.3126 C.ar    1  UNL1        0.0905
     15 C         141.1115  140.6813  167.9159 C.ar    1  UNL1        0.0070
     16 C         142.9054  141.5998  169.5555 C.3     1  UNL1        0.4200
     17 F         144.2643  142.1866  169.7984 F       1  UNL1       -0.1658
     18 F         142.4766  142.8707  168.8839 F       1  UNL1       -0.1658
     19 F         143.3342  140.3289  170.2270 F       1  UNL1       -0.1658
     20 C         137.6453  142.8526  162.9040 C.3     1  UNL1        0.1920
     21 C         140.3962  145.6726  162.4241 C.3     1  UNL1        0.1150
     22 N         139.4153  144.7464  163.0798 N.am    1  UNL1       -0.2744
     23 C         139.2234  144.7877  164.5669 C.3     1  UNL1        0.1150
     24 C         138.6263  143.7789  162.2483 C.2     1  UNL1        0.2488
     25 O         138.8182  143.7376  160.7613 O.2     1  UNL1       -0.2728
@<TRIPOS>BOND
     1    21    22    1
     2    22    23    1
     3    22    24   am
     4    24    25    2
     5    24    20    1
     6    20     1    1
     7     1     2   ar
     8     2     3   ar
     9     3     4   ar
    10     4     5   ar
    11     5     6   ar
    12     6     7   ar
    13     7    10    1
    14    10    11   ar
    15    11    12   ar
    16    12    13   ar
    17    13    14   ar
    18    14    16    1
    19    16    17    1
    20    16    18    1
    21    16    19    1
    22    14    15   ar
    23     7     8   ar
    24     8     9   ar
    25     9     1   ar
    26     9     4   ar
    27    15    10   ar
@<TRIPOS>MOLECULE
*****
 25 27 0 0 0
SMALL
GASTEIGER

@<TRIPOS>ATOM
      1 N         137.9643  140.3189  162.6437 N.ar    1  UNL1       -0.3165
      2 C         137.7867  139.3677  161.4976 C.ar    1  UNL1        0.0779
      3 C         138.6524  138.1693  161.7515 C.ar    1  UNL1        0.0392
      4 C         139.3649  138.3798  163.0546 C.ar    1  UNL1        0.0985
      5 N         140.3460  137.5335  163.8103 N.ar    1  UNL1       -0.2423
      6 C         140.9018  138.0157  165.1174 C.ar    1  UNL1        0.0989
      7 C         140.4765  139.3442  165.6688 C.ar    1  UNL1        0.0221
      8 C         139.4954  140.1906  164.9131 C.ar    1  UNL1        0.0203
      9 C         138.9396  139.7084  163.6060 C.ar    1  UNL1        0.0782
     10 C         141.0324  139.8264  166.9759 C.ar    1  UNL1        0.0207
     11 C         142.3927  139.3795  167.4230 C.ar    1  UNL1        0.0989
     12 N         142.9486  139.8617  168.7301 N.ar    1  UNL1       -0.2424
     13 C         142.1441  140.7908  169.5902 C.ar    1  UNL1        0.1027
     14 C         140.7837  141.2377  169.1431 C.ar    1  UNL1        0.0905
     15 C         140.2279  140.7555  167.8360 C.ar    1  UNL1        0.0070
     16 C         139.9793  142.1667  170.0031 C.3     1  UNL1        0.4200
     17 F         139.1748  143.0958  170.8631 F       1  UNL1       -0.1658
     18 F         138.8859  141.1432  170.0860 F       1  UNL1       -0.1658
     19 F         141.0727  143.1903  169.9202 F       1  UNL1       -0.1658
     20 C         137.2856  141.6474  162.8002 C.3     1  UNL1        0.1920
     21 C         139.1482  145.1502  162.6920 C.3     1  UNL1        0.1150
     22 N         138.4956  143.9077  163.2214 N.am    1  UNL1       -0.2744
     23 C         138.4003  143.6829  164.7014 C.3     1  UNL1        0.1150
     24 C         137.9383  142.8900  162.2708 C.2     1  UNL1        0.2488
     25 O         138.0336  143.1148  160.7908 O.2     1  UNL1       -0.2728
@<TRIPOS>BOND
     1    21    22    1
     2    22    23    1
     3    22    24   am
     4    24    25    2
     5    24    20    1
     6    20     1    1
     7     1     2   ar
     8     2     3   ar
     9     3     4   ar
    10     4     5   ar
    11     5     6   ar
    12     6     7   ar
    13     7    10    1
    14    10    11   ar
    15    11    12   ar
    16    12    13   ar
    17    13    14   ar
    18    14    16    1
    19    16    17    1
    20    16    18    1
    21    16    19    1
    22    14    15   ar
    23     7     8   ar
    24     8     9   ar
    25     9     1   ar
    26     9     4   ar
    27    15    10   ar
@<TRIPOS>MOLECULE
*****
 25 27 0 0 0
SMALL
GASTEIGER

@<TRIPOS>ATOM
      1 N         141.8294  143.8913  161.0849 N.ar    1  UNL1       -0.3165
      2 C         141.3105  144.9761  160.1884 C.ar    1  UNL1        0.0779
      3 C         140.0235  145.4817  160.7697 C.ar    1  UNL1        0.0392
      4 C         139.7470  144.7094  162.0255 C.ar    1  UNL1        0.0985
      5 N         138.6231  144.7742  163.0168 N.ar    1  UNL1       -0.2423
      6 C         138.6154  143.8560  164.2028 C.ar    1  UNL1        0.0989
      7 C         139.7315  142.8730  164.3977 C.ar    1  UNL1        0.0221
      8 C         140.8554  142.8082  163.4064 C.ar    1  UNL1        0.0203
      9 C         140.8631  143.7264  162.2203 C.ar    1  UNL1        0.0782
     10 C         139.7238  141.9548  165.5838 C.ar    1  UNL1        0.0207
     11 C         140.4881  142.3216  166.8212 C.ar    1  UNL1        0.0989
     12 N         140.4804  141.4034  168.0074 N.ar    1  UNL1       -0.2424
     13 C         139.7082  140.1184  167.9561 C.ar    1  UNL1        0.1027
     14 C         138.9438  139.7517  166.7186 C.ar    1  UNL1        0.0905
     15 C         138.9516  140.6698  165.5325 C.ar    1  UNL1        0.0070
     16 C         138.1717  138.4667  166.6673 C.3     1  UNL1        0.4200
     17 F         137.3995  137.1817  166.6160 F       1  UNL1       -0.1658
     18 F         138.8795  138.0920  165.3990 F       1  UNL1       -0.1658
     19 F         137.4638  138.8414  167.9355 F       1  UNL1       -0.1658
     20 C         143.0928  143.1086  160.8818 C.3     1  UNL1        0.1920
     21 C         145.7325  141.6633  163.4689 C.3     1  UNL1        0.1150
     22 N         144.7053  141.7257  162.3776 N.am    1  UNL1       -0.2744
     23 C         144.2633  140.4675  161.6909 C.3     1  UNL1        0.1150
     24 C         144.1201  143.0462  161.9731 C.2     1  UNL1        0.2488
     25 O         144.5622  144.3044  162.6598 O.2     1  UNL1       -0.2728
@<TRIPOS>BOND
     1    21    22    1
     2    22    23    1
     3    22    24   am
     4    24    25    2
     5    24    20    1
     6    20     1    1
     7     1     2   ar
     8     2     3   ar
     9     3     4   ar
    10     4     5   ar
    11     5     6   ar
    12     6     7   ar
    13     7    10    1
    14    10    11   ar
    15    11    12   ar
    16    12    13   ar
    17    13    14   ar
    18    14    16    1
    19    16    17    1
    20    16    18    1
    21    16    19    1
    22    14    15   ar
    23     7     8   ar
    24     8     9   ar
    25     9     1   ar
    26     9     4   ar
    27    15    10   ar
@<TRIPOS>MOLECULE
*****
 25 27 0 0 0
SMALL
GASTEIGER

@<TRIPOS>ATOM
      1 N         141.4655  144.2523  161.6111 N.ar    1  UNL1       -0.3165
      2 C         140.7125  145.3404  160.9047 C.ar    1  UNL1        0.0779
      3 C         139.6011  145.7941  161.8041 C.ar    1  UNL1        0.0392
      4 C         139.6672  144.9864  163.0663 C.ar    1  UNL1        0.0985
      5 N         138.8270  144.9955  164.3089 N.ar    1  UNL1       -0.2423
      6 C         139.1392  144.0518  165.4322 C.ar    1  UNL1        0.0989
      7 C         140.2915  143.0989  165.3129 C.ar    1  UNL1        0.0221
      8 C         141.1316  143.0898  164.0704 C.ar    1  UNL1        0.0203
      9 C         140.8195  144.0335  162.9471 C.ar    1  UNL1        0.0782
     10 C         140.6036  142.1551  166.4363 C.ar    1  UNL1        0.0207
     11 C         139.7308  140.9589  166.6753 C.ar    1  UNL1        0.0989
     12 N         140.0429  140.0151  167.7987 N.ar    1  UNL1       -0.2424
     13 C         141.2279  140.2676  168.6830 C.ar    1  UNL1        0.1027
     14 C         142.1007  141.4639  168.4440 C.ar    1  UNL1        0.0905
     15 C         141.7886  142.4076  167.3207 C.ar    1  UNL1        0.0070
     16 C         143.2857  141.7164  169.3283 C.3     1  UNL1        0.4200
     17 F         144.4707  141.9689  170.2127 F       1  UNL1       -0.1658
     18 F         143.8546  142.6484  168.2999 F       1  UNL1       -0.1658
     19 F         142.7167  140.7844  170.3568 F       1  UNL1       -0.1658
     20 C         142.6556  143.5128  161.0756 C.3     1  UNL1        0.1920
     21 C         145.6305  141.8159  163.0808 C.3     1  UNL1        0.1150
     22 N         144.4043  141.9784  162.2322 N.am    1  UNL1       -0.2744
     23 C         143.7007  140.7690  161.6916 C.3     1  UNL1        0.1150
     24 C         143.8818  143.3503  161.9242 C.2     1  UNL1        0.2488
     25 O         144.5854  144.5597  162.4648 O.2     1  UNL1       -0.2728
@<TRIPOS>BOND
     1    21    22    1
     2    22    23    1
     3    22    24   am
     4    24    25    2
     5    24    20    1
     6    20     1    1
     7     1     2   ar
     8     2     3   ar
     9     3     4   ar
    10     4     5   ar
    11     5     6   ar
    12     6     7   ar
    13     7    10    1
    14    10    11   ar
    15    11    12   ar
    16    12    13   ar
    17    13    14   ar
    18    14    16    1
    19    16    17    1
    20    16    18    1
    21    16    19    1
    22    14    15   ar
    23     7     8   ar
    24     8     9   ar
    25     9     1   ar
    26     9     4   ar
    27    15    10   ar
@<TRIPOS>MOLECULE
*****
 25 27 0 0 0
SMALL
GASTEIGER

@<TRIPOS>ATOM
      1 N         141.9392  143.6242  160.6002 N.ar    1  UNL1       -0.3165
      2 C         141.5193  144.8859  159.9060 C.ar    1  UNL1        0.0779
      3 C         140.0591  145.0991  160.1752 C.ar    1  UNL1        0.0392
      4 C         139.5766  143.9691  161.0357 C.ar    1  UNL1        0.0985
      5 N         138.2293  143.6525  161.6141 N.ar    1  UNL1       -0.2423
      6 C         138.0440  142.4244  162.4550 C.ar    1  UNL1        0.0989
      7 C         139.2059  141.5128  162.7177 C.ar    1  UNL1        0.0221
      8 C         140.5532  141.8295  162.1393 C.ar    1  UNL1        0.0203
      9 C         140.7385  143.0576  161.2984 C.ar    1  UNL1        0.0782
     10 C         139.0206  140.2846  163.5587 C.ar    1  UNL1        0.0207
     11 C         139.0661  138.9267  162.9233 C.ar    1  UNL1        0.0989
     12 N         138.8807  137.6985  163.7643 N.ar    1  UNL1       -0.2424
     13 C         138.6498  137.8283  165.2407 C.ar    1  UNL1        0.1027
     14 C         138.6043  139.1864  165.8761 C.ar    1  UNL1        0.0905
     15 C         138.7897  140.4145  165.0351 C.ar    1  UNL1        0.0070
     16 C         138.3735  139.3162  167.3525 C.3     1  UNL1        0.4200
     17 F         138.1426  139.4461  168.8290 F       1  UNL1       -0.1658
     18 F         137.1589  138.4433  167.2394 F       1  UNL1       -0.1658
     19 F         139.5881  140.1892  167.4657 F       1  UNL1       -0.1658
     20 C         143.3177  143.0329  160.5967 C.3     1  UNL1        0.1920
     21 C         145.5767  141.9723  163.6825 C.3     1  UNL1        0.1150
     22 N         144.7176  141.8788  162.4565 N.am    1  UNL1       -0.2744
     23 C         144.3991  140.5380  161.8642 C.3     1  UNL1        0.1150
     24 C         144.1769  143.1263  161.8228 C.2     1  UNL1        0.2488
     25 O         144.4954  144.4671  162.4151 O.2     1  UNL1       -0.2728
@<TRIPOS>BOND
     1    21    22    1
     2    22    23    1
     3    22    24   am
     4    24    25    2
     5    24    20    1
     6    20     1    1
     7     1     2   ar
     8     2     3   ar
     9     3     4   ar
    10     4     5   ar
    11     5     6   ar
    12     6     7   ar
    13     7    10    1
    14    10    11   ar
    15    11    12   ar
    16    12    13   ar
    17    13    14   ar
    18    14    16    1
    19    16    17    1
    20    16    18    1
    21    16    19    1
    22    14    15   ar
    23     7     8   ar
    24     8     9   ar
    25     9     1   ar
    26     9     4   ar
    27    15    10   ar
@<TRIPOS>MOLECULE
*****
 25 27 0 0 0
SMALL
GASTEIGER

@<TRIPOS>ATOM
      1 N         141.9282  138.4987  162.4132 N.ar    1  UNL1       -0.3165
      2 C         140.9064  138.0241  161.4230 C.ar    1  UNL1        0.0779
      3 C         139.5601  138.0838  162.0817 C.ar    1  UNL1        0.0392
      4 C         139.7499  138.5953  163.4790 C.ar    1  UNL1        0.0985
      5 N         138.7791  138.8607  164.5912 N.ar    1  UNL1       -0.2423
      6 C         139.2719  139.3825  165.9083 C.ar    1  UNL1        0.0989
      7 C         140.7356  139.6389  166.1132 C.ar    1  UNL1        0.0221
      8 C         141.7064  139.3735  165.0010 C.ar    1  UNL1        0.0203
      9 C         141.2135  138.8517  163.6839 C.ar    1  UNL1        0.0782
     10 C         141.2284  140.1607  167.4304 C.ar    1  UNL1        0.0207
     11 C         142.4684  139.5859  168.0482 C.ar    1  UNL1        0.0989
     12 N         142.9613  140.1077  169.3654 N.ar    1  UNL1       -0.2424
     13 C         142.2140  141.2043  170.0647 C.ar    1  UNL1        0.1027
     14 C         140.9739  141.7791  169.4467 C.ar    1  UNL1        0.0905
     15 C         140.4811  141.2573  168.1296 C.ar    1  UNL1        0.0070
     16 C         140.2266  142.8758  170.1460 C.3     1  UNL1        0.4200
     17 F         139.4793  143.9724  170.8452 F       1  UNL1       -0.1658
     18 F         141.3815  143.8061  169.9211 F       1  UNL1       -0.1658
     19 F         139.0717  141.9454  170.3709 F       1  UNL1       -0.1658
     20 C         143.4055  138.6021  162.1747 C.3     1  UNL1        0.1920
     21 C         145.6070  141.7195  163.2636 C.3     1  UNL1        0.1150
     22 N         144.9439  140.3743  163.2896 N.am    1  UNL1       -0.2744
     23 C         145.1559  139.4561  164.4566 C.3     1  UNL1        0.1150
     24 C         144.0687  139.9474  162.1487 C.2     1  UNL1        0.2488
     25 O         143.8567  140.8657  160.9817 O.2     1  UNL1       -0.2728
@<TRIPOS>BOND
     1    21    22    1
     2    22    23    1
     3    22    24   am
     4    24    25    2
     5    24    20    1
     6    20     1    1
     7     1     2   ar
     8     2     3   ar
     9     3     4   ar
    10     4     5   ar
    11     5     6   ar
    12     6     7   ar
    13     7    10    1
    14    10    11   ar
    15    11    12   ar
    16    12    13   ar
    17    13    14   ar
    18    14    16    1
    19    16    17    1
    20    16    18    1
    21    16    19    1
    22    14    15   ar
    23     7     8   ar
    24     8     9   ar
    25     9     1   ar
    26     9     4   ar
    27    15    10   ar
@<TRIPOS>MOLECULE
*****
 25 27 0 0 0
SMALL
GASTEIGER

@<TRIPOS>ATOM
      1 N         139.6235  141.5734  163.2253 N.ar    1  UNL1       -0.3165
      2 C         138.8373  140.8040  162.2056 C.ar    1  UNL1        0.0779
      3 C         138.1404  139.6783  162.9106 C.ar    1  UNL1        0.0392
      4 C         138.4958  139.7520  164.3660 C.ar    1  UNL1        0.0985
      5 N         138.1033  138.9039  165.5393 N.ar    1  UNL1       -0.2423
      6 C         138.6274  139.2271  166.9070 C.ar    1  UNL1        0.0989
      7 C         139.5441  140.3984  167.1015 C.ar    1  UNL1        0.0221
      8 C         139.9366  141.2465  165.9282 C.ar    1  UNL1        0.0203
      9 C         139.4125  140.9233  164.5605 C.ar    1  UNL1        0.0782
     10 C         140.0682  140.7215  168.4694 C.ar    1  UNL1        0.0207
     11 C         139.2503  140.3925  169.6829 C.ar    1  UNL1        0.0989
     12 N         139.7745  140.7157  171.0508 N.ar    1  UNL1       -0.2424
     13 C         141.1164  141.3679  171.2050 C.ar    1  UNL1        0.1027
     14 C         141.9342  141.6970  169.9913 C.ar    1  UNL1        0.0905
     15 C         141.4101  141.3738  168.6235 C.ar    1  UNL1        0.0070
     16 C         143.2762  142.3492  170.1455 C.3     1  UNL1        0.4200
     17 F         144.6181  143.0015  170.2996 F       1  UNL1       -0.1658
     18 F         142.6151  143.6942  170.2095 F       1  UNL1       -0.1658
     19 F         143.9372  141.0043  170.0814 F       1  UNL1       -0.1658
     20 C         140.4718  142.7810  162.9569 C.3     1  UNL1        0.1920
     21 C         144.3418  143.6515  162.8310 C.3     1  UNL1        0.1150
     22 N         142.8606  143.8013  163.0143 N.am    1  UNL1       -0.2744
     23 C         142.2868  145.1208  163.4380 C.3     1  UNL1        0.1150
     24 C         141.9531  142.6314  162.7737 C.2     1  UNL1        0.2488
     25 O         142.5269  141.3118  162.3499 O.2     1  UNL1       -0.2728
@<TRIPOS>BOND
     1    21    22    1
     2    22    23    1
     3    22    24   am
     4    24    25    2
     5    24    20    1
     6    20     1    1
     7     1     2   ar
     8     2     3   ar
     9     3     4   ar
    10     4     5   ar
    11     5     6   ar
    12     6     7   ar
    13     7    10    1
    14    10    11   ar
    15    11    12   ar
    16    12    13   ar
    17    13    14   ar
    18    14    16    1
    19    16    17    1
    20    16    18    1
    21    16    19    1
    22    14    15   ar
    23     7     8   ar
    24     8     9   ar
    25     9     1   ar
    26     9     4   ar
    27    15    10   ar
@<TRIPOS>MOLECULE
*****
 25 27 0 0 0
SMALL
GASTEIGER

@<TRIPOS>ATOM
      1 N         143.7045  142.3179  162.2469 N.ar    1  UNL1       -0.3165
      2 C         144.1692  141.5195  161.0652 C.ar    1  UNL1        0.0779
      3 C         144.1724  140.0715  161.4565 C.ar    1  UNL1        0.0392
      4 C         143.7098  139.9750  162.8802 C.ar    1  UNL1        0.0985
      5 N         143.5146  138.8023  163.7948 N.ar    1  UNL1       -0.2423
      6 C         143.0301  139.0180  165.1979 C.ar    1  UNL1        0.0989
      7 C         142.7409  140.4064  165.6864 C.ar    1  UNL1        0.0221
      8 C         142.9362  141.5791  164.7718 C.ar    1  UNL1        0.0203
      9 C         143.4206  141.3634  163.3687 C.ar    1  UNL1        0.0782
     10 C         142.2564  140.6221  167.0895 C.ar    1  UNL1        0.0207
     11 C         141.1449  139.7769  167.6374 C.ar    1  UNL1        0.0989
     12 N         140.6604  139.9926  169.0406 N.ar    1  UNL1       -0.2424
     13 C         141.2875  141.0535  169.8958 C.ar    1  UNL1        0.1027
     14 C         142.3991  141.8986  169.3479 C.ar    1  UNL1        0.0905
     15 C         142.8835  141.6829  167.9448 C.ar    1  UNL1        0.0070
     16 C         143.0262  142.9595  170.2031 C.3     1  UNL1        0.4200
     17 F         143.6533  144.0203  171.0583 F       1  UNL1       -0.1658
     18 F         141.7043  143.6616  170.3013 F       1  UNL1       -0.1658
     19 F         144.3480  142.2573  170.1048 F       1  UNL1       -0.1658
     20 C         143.5507  143.8092  162.2980 C.3     1  UNL1        0.1920
     21 C         140.0834  145.6872  161.8501 C.3     1  UNL1        0.1150
     22 N         141.2675  145.0327  162.4978 N.am    1  UNL1       -0.2744
     23 C         141.3525  144.9473  163.9930 C.3     1  UNL1        0.1150
     24 C         142.3665  144.4637  161.6503 C.2     1  UNL1        0.2488
     25 O         142.2815  144.5491  160.1552 O.2     1  UNL1       -0.2728
@<TRIPOS>BOND
     1    21    22    1
     2    22    23    1
     3    22    24   am
     4    24    25    2
     5    24    20    1
     6    20     1    1
     7     1     2   ar
     8     2     3   ar
     9     3     4   ar
    10     4     5   ar
    11     5     6   ar
    12     6     7   ar
    13     7    10    1
    14    10    11   ar
    15    11    12   ar
    16    12    13   ar
    17    13    14   ar
    18    14    16    1
    19    16    17    1
    20    16    18    1
    21    16    19    1
    22    14    15   ar
    23     7     8   ar
    24     8     9   ar
    25     9     1   ar
    26     9     4   ar
    27    15    10   ar
@<TRIPOS>MOLECULE
*****
 25 27 0 0 0
SMALL
GASTEIGER

@<TRIPOS>ATOM
      1 N         142.0765  144.6343  163.3418 N.ar    1  UNL1       -0.3165
      2 C         143.2993  145.3991  163.7539 C.ar    1  UNL1        0.0779
      3 C         144.1321  144.5068  164.6258 C.ar    1  UNL1        0.0392
      4 C         143.4240  143.1905  164.7526 C.ar    1  UNL1        0.0985
      5 N         143.7719  141.9304  165.4882 N.ar    1  UNL1       -0.2423
      6 C         142.8494  140.7491  165.4301 C.ar    1  UNL1        0.0989
      7 C         141.5789  140.8280  164.6365 C.ar    1  UNL1        0.0221
      8 C         141.2310  142.0880  163.9010 C.ar    1  UNL1        0.0203
      9 C         142.1536  143.2693  163.9590 C.ar    1  UNL1        0.0782
     10 C         140.6564  139.6466  164.5785 C.ar    1  UNL1        0.0207
     11 C         140.7370  138.6879  163.4277 C.ar    1  UNL1        0.0989
     12 N         139.8144  137.5065  163.3697 N.ar    1  UNL1       -0.2424
     13 C         138.8113  137.2839  164.4625 C.ar    1  UNL1        0.1027
     14 C         138.7307  138.2426  165.6133 C.ar    1  UNL1        0.0905
     15 C         139.6533  139.4239  165.6713 C.ar    1  UNL1        0.0070
     16 C         137.7276  138.0200  166.7061 C.3     1  UNL1        0.4200
     17 F         136.7245  137.7974  167.7989 F       1  UNL1       -0.1658
     18 F         137.7383  139.4879  167.0149 F       1  UNL1       -0.1658
     19 F         137.7170  136.5522  166.3974 F       1  UNL1       -0.1658
     20 C         140.9708  145.1448  162.4662 C.3     1  UNL1        0.1920
     21 C         139.6038  143.2938  159.2327 C.3     1  UNL1        0.1150
     22 N         139.7195  143.7716  160.6498 N.am    1  UNL1       -0.2744
     23 C         138.7000  143.3542  161.6678 C.3     1  UNL1        0.1150
     24 C         140.8549  144.6669  161.0490 C.2     1  UNL1        0.2488
     25 O         141.8745  145.0843  160.0310 O.2     1  UNL1       -0.2728
@<TRIPOS>BOND
     1    21    22    1
     2    22    23    1
     3    22    24   am
     4    24    25    2
     5    24    20    1
     6    20     1    1
     7     1     2   ar
     8     2     3   ar
     9     3     4   ar
    10     4     5   ar
    11     5     6   ar
    12     6     7   ar
    13     7    10    1
    14    10    11   ar
    15    11    12   ar
    16    12    13   ar
    17    13    14   ar
    18    14    16    1
    19    16    17    1
    20    16    18    1
    21    16    19    1
    22    14    15   ar
    23     7     8   ar
    24     8     9   ar
    25     9     1   ar
    26     9     4   ar
    27    15    10   ar
