@<TRIPOS>MOLECULE
*****
 39 41 0 0 0
SMALL
GASTEIGER

@<TRIPOS>ATOM
      1 C         138.5735  139.6830  162.9314 C.ar    1  UNL1        0.0841
      2 S         138.3970  140.3842  164.2456 S.2     1  UNL1       -0.0719
      3 C         139.5271  139.9768  165.1438 C.ar    1  UNL1        0.0352
      4 C         140.4021  139.0238  164.3846 C.ar    1  UNL1        0.0129
      5 C         139.8127  138.8422  163.0173 C.ar    1  UNL1        0.0732
      6 C         139.7442  140.4409  166.5536 C.ar    1  UNL1        0.0609
      7 C         140.6814  141.5782  166.8329 C.ar    1  UNL1        0.1425
      8 F         141.4016  142.2515  165.7023 F       1  UNL1       -0.2041
      9 C         140.8985  142.0424  168.2427 C.ar    1  UNL1        0.0278
     10 C         140.1783  141.3690  169.3732 C.ar    1  UNL1        0.0062
     11 C         139.2411  140.2317  169.0939 C.ar    1  UNL1        0.0278
     12 C         139.0240  139.7676  167.6841 C.ar    1  UNL1        0.1425
     13 F         138.0868  138.6303  167.4048 F       1  UNL1       -0.2041
     14 C         140.3954  141.8331  170.7830 C.3     1  UNL1        0.1073
     15 C         140.0083  143.2262  170.3840 C.3     1  UNL1        0.0339
     16 C         140.7825  140.4399  171.1820 C.3     1  UNL1        0.0339
     17 O         140.6124  142.2972  172.1927 O.3     1  UNL1       -0.3827
     18 H         140.4232  143.2466  172.2533 H       1  UNL1        0.2107
     19 C         140.3655  137.9726  161.9273 C.2     1  UNL1        0.2445
     20 N         141.7445  137.3963  162.0544 N.am    1  UNL1       -0.3253
     21 O         139.5393  137.6793  160.7102 O.2     1  UNL1       -0.2703
     22 H         142.2868  137.5888  162.8532 H       1  UNL1        0.1453
     23 H         142.1074  136.8255  161.3389 H       1  UNL1        0.1453
     24 N         137.6694  139.8018  161.7403 N.pl3   1  UNL1       -0.2929
     25 H         136.8290  139.2901  161.7073 H       1  UNL1        0.1541
     26 C         139.1866  142.8625  159.7204 C.ar    1  UNL1        0.0902
     27 C         138.7988  142.4970  158.3182 C.ar    1  UNL1        0.0174
     28 C         138.0345  141.2330  158.0568 C.ar    1  UNL1        0.0042
     29 C         137.6581  140.3346  159.1975 C.ar    1  UNL1        0.0344
     30 C         138.0459  140.7002  160.5996 C.ar    1  UNL1        0.1322
     31 N         138.8102  141.9642  160.8611 N.ar    1  UNL1       -0.2324
     32 C         139.9509  144.1265  159.9818 C.3     1  UNL1        0.1876
     33 O         140.3573  144.4813  161.3814 O.3     1  UNL1       -0.3449
     34 C         139.3782  145.1505  162.2998 C.3     1  UNL1        0.1693
     35 C         137.7063  144.2997  163.2902 C.3     1  UNL1        0.0319
     36 C         139.1288  144.5889  163.6682 C.3     1  UNL1        0.1157
     37 C         140.5513  144.8782  164.0461 C.3     1  UNL1        0.0319
     38 O         138.8795  144.0273  165.0365 O.3     1  UNL1       -0.3843
     39 H         138.1313  144.4905  165.4447 H       1  UNL1        0.2103
@<TRIPOS>BOND
     1    35    36    1
     2    36    37    1
     3    36    38    1
     4    36    34    1
     5    34    33    1
     6    33    32    1
     7    32    26    1
     8    26    27   ar
     9    27    28   ar
    10    28    29   ar
    11    29    30   ar
    12    30    24    1
    13    24     1    1
    14     1     2   ar
    15     2     3   ar
    16     3     6    1
    17     6     7   ar
    18     7     8    1
    19     7     9   ar
    20     9    10   ar
    21    10    14    1
    22    14    15    1
    23    14    16    1
    24    14    17    1
    25    10    11   ar
    26    11    12   ar
    27    12    13    1
    28     3     4   ar
    29     4     5   ar
    30     5    19    1
    31    19    20   am
    32    19    21    2
    33    30    31   ar
    34    31    26   ar
    35     5     1   ar
    36    12     6   ar
    37    38    39    1
    38    24    25    1
    39    17    18    1
    40    20    22    1
    41    20    23    1
@<TRIPOS>MOLECULE
*****
 39 41 0 0 0
SMALL
GASTEIGER

@<TRIPOS>ATOM
      1 C         139.1870  140.8685  162.8883 C.ar    1  UNL1        0.0841
      2 S         139.8480  140.3164  164.1164 S.2     1  UNL1       -0.0719
      3 C         139.7215  141.3362  165.2091 C.ar    1  UNL1        0.0352
      4 C         138.9823  142.5186  164.6563 C.ar    1  UNL1        0.0129
      5 C         138.6520  142.2295  163.2220 C.ar    1  UNL1        0.0732
      6 C         140.2427  141.1979  166.6088 C.ar    1  UNL1        0.0609
      7 C         139.5748  140.2580  167.5684 C.ar    1  UNL1        0.1425
      8 F         138.3858  139.4564  167.1282 F       1  UNL1       -0.2041
      9 C         140.0959  140.1197  168.9681 C.ar    1  UNL1        0.0278
     10 C         141.2850  140.9213  169.4083 C.ar    1  UNL1        0.0062
     11 C         141.9528  141.8611  168.4488 C.ar    1  UNL1        0.0278
     12 C         141.4316  141.9994  167.0490 C.ar    1  UNL1        0.1425
     13 F         142.0994  142.9392  166.0895 F       1  UNL1       -0.2041
     14 C         141.8062  140.7830  170.8081 C.3     1  UNL1        0.1073
     15 C         140.8628  141.8558  171.2653 C.3     1  UNL1        0.0339
     16 C         142.7496  139.7102  170.3508 C.3     1  UNL1        0.0339
     17 O         142.3273  140.6447  172.2077 O.3     1  UNL1       -0.3827
     18 H         141.8645  141.2690  172.7882 H       1  UNL1        0.2107
     19 C         137.9158  143.1414  162.2857 C.2     1  UNL1        0.2445
     20 N         137.4504  144.4862  162.7598 N.am    1  UNL1       -0.3253
     21 O         137.6452  142.7084  160.8753 O.2     1  UNL1       -0.2703
     22 H         137.6280  144.7703  163.6855 H       1  UNL1        0.1453
     23 H         136.9672  145.0847  162.1453 H       1  UNL1        0.1453
     24 N         139.0799  140.1803  161.5598 N.pl3   1  UNL1       -0.2929
     25 H         138.3310  139.5664  161.3824 H       1  UNL1        0.1541
     26 C         142.0605  141.8605  159.5490 C.ar    1  UNL1        0.0902
     27 C         142.1816  140.9221  158.3850 C.ar    1  UNL1        0.0174
     28 C         141.2688  139.7365  158.2793 C.ar    1  UNL1        0.0042
     29 C         140.2349  139.4893  159.3376 C.ar    1  UNL1        0.0344
     30 C         140.1138  140.4276  160.5015 C.ar    1  UNL1        0.1322
     31 N         141.0266  141.6133  160.6072 N.ar    1  UNL1       -0.2324
     32 C         142.9732  143.0461  159.6547 C.3     1  UNL1        0.1876
     33 O         142.4620  144.3382  160.2197 O.3     1  UNL1       -0.3449
     34 C         142.3223  144.5046  161.7038 C.3     1  UNL1        0.1693
     35 C         140.5731  145.3860  160.8892 C.3     1  UNL1        0.0319
     36 C         141.1473  145.2469  162.2680 C.3     1  UNL1        0.1157
     37 C         141.7214  145.1079  163.6467 C.3     1  UNL1        0.0319
     38 O         139.9722  145.9892  162.8321 O.3     1  UNL1       -0.3843
     39 H         139.8902  146.8488  162.3901 H       1  UNL1        0.2103
@<TRIPOS>BOND
     1    35    36    1
     2    36    37    1
     3    36    38    1
     4    36    34    1
     5    34    33    1
     6    33    32    1
     7    32    26    1
     8    26    27   ar
     9    27    28   ar
    10    28    29   ar
    11    29    30   ar
    12    30    24    1
    13    24     1    1
    14     1     2   ar
    15     2     3   ar
    16     3     6    1
    17     6     7   ar
    18     7     8    1
    19     7     9   ar
    20     9    10   ar
    21    10    14    1
    22    14    15    1
    23    14    16    1
    24    14    17    1
    25    10    11   ar
    26    11    12   ar
    27    12    13    1
    28     3     4   ar
    29     4     5   ar
    30     5    19    1
    31    19    20   am
    32    19    21    2
    33    30    31   ar
    34    31    26   ar
    35     5     1   ar
    36    12     6   ar
    37    38    39    1
    38    24    25    1
    39    17    18    1
    40    20    22    1
    41    20    23    1
@<TRIPOS>MOLECULE
*****
 39 41 0 0 0
SMALL
GASTEIGER

@<TRIPOS>ATOM
      1 C         138.7624  140.7122  163.0186 C.ar    1  UNL1        0.0841
      2 S         139.3525  140.1455  164.2759 S.2     1  UNL1       -0.0719
      3 C         139.5410  141.2721  165.2481 C.ar    1  UNL1        0.0352
      4 C         139.0674  142.5351  164.5917 C.ar    1  UNL1        0.0129
      5 C         138.5862  142.1889  163.2138 C.ar    1  UNL1        0.0732
      6 C         140.1043  141.1562  166.6335 C.ar    1  UNL1        0.0609
      7 C         141.2879  141.9861  167.0338 C.ar    1  UNL1        0.1425
      8 F         141.9084  142.9320  166.0487 F       1  UNL1       -0.2041
      9 C         141.8512  141.8702  168.4192 C.ar    1  UNL1        0.0278
     10 C         141.2308  140.9243  169.4043 C.ar    1  UNL1        0.0062
     11 C         140.0471  140.0944  169.0040 C.ar    1  UNL1        0.0278
     12 C         139.4839  140.2103  167.6186 C.ar    1  UNL1        0.1425
     13 F         138.3002  139.3804  167.2183 F       1  UNL1       -0.2041
     14 C         141.7940  140.8083  170.7897 C.3     1  UNL1        0.1073
     15 C         140.8725  141.8963  171.2554 C.3     1  UNL1        0.0339
     16 C         142.7156  139.7203  170.3240 C.3     1  UNL1        0.0339
     17 O         142.3572  140.6924  172.1751 O.3     1  UNL1       -0.3827
     18 H         141.9168  141.3308  172.7576 H       1  UNL1        0.2107
     19 C         138.0270  143.1508  162.2077 C.2     1  UNL1        0.2445
     20 N         137.4967  144.4805  162.6556 N.am    1  UNL1       -0.3253
     21 O         137.9982  142.7829  160.7539 O.2     1  UNL1       -0.2703
     22 H         137.5156  144.7220  163.6098 H       1  UNL1        0.1453
     23 H         137.1297  145.1118  161.9952 H       1  UNL1        0.1453
     24 N         138.4102  139.9379  161.7831 N.pl3   1  UNL1       -0.2929
     25 H         137.4666  139.7599  161.5660 H       1  UNL1        0.1541
     26 C         141.9132  138.5433  160.5443 C.ar    1  UNL1        0.0902
     27 C         141.6669  138.4287  159.0690 C.ar    1  UNL1        0.0174
     28 C         140.3352  138.8171  158.4985 C.ar    1  UNL1        0.0042
     29 C         139.2496  139.3202  159.4032 C.ar    1  UNL1        0.0344
     30 C         139.4958  139.4348  160.8784 C.ar    1  UNL1        0.1322
     31 N         140.8276  139.0464  161.4490 N.ar    1  UNL1       -0.2324
     32 C         143.2449  138.1549  161.1148 C.3     1  UNL1        0.1876
     33 O         144.2965  139.1998  161.3434 O.3     1  UNL1       -0.3449
     34 C         143.9981  140.3872  162.2100 C.3     1  UNL1        0.1693
     35 C         145.0406  139.8715  163.9841 C.3     1  UNL1        0.0319
     36 C         145.0917  141.0189  163.0193 C.3     1  UNL1        0.1157
     37 C         145.1429  142.1663  162.0545 C.3     1  UNL1        0.0319
     38 O         146.1853  141.6506  163.8285 O.3     1  UNL1       -0.3843
     39 H         145.8879  141.7586  164.7455 H       1  UNL1        0.2103
@<TRIPOS>BOND
     1    35    36    1
     2    36    37    1
     3    36    38    1
     4    36    34    1
     5    34    33    1
     6    33    32    1
     7    32    26    1
     8    26    27   ar
     9    27    28   ar
    10    28    29   ar
    11    29    30   ar
    12    30    24    1
    13    24     1    1
    14     1     2   ar
    15     2     3   ar
    16     3     6    1
    17     6     7   ar
    18     7     8    1
    19     7     9   ar
    20     9    10   ar
    21    10    14    1
    22    14    15    1
    23    14    16    1
    24    14    17    1
    25    10    11   ar
    26    11    12   ar
    27    12    13    1
    28     3     4   ar
    29     4     5   ar
    30     5    19    1
    31    19    20   am
    32    19    21    2
    33    30    31   ar
    34    31    26   ar
    35     5     1   ar
    36    12     6   ar
    37    38    39    1
    38    24    25    1
    39    17    18    1
    40    20    22    1
    41    20    23    1
@<TRIPOS>MOLECULE
*****
 39 41 0 0 0
SMALL
GASTEIGER

@<TRIPOS>ATOM
      1 C         138.4648  140.5680  163.1430 C.ar    1  UNL1        0.0841
      2 S         138.7438  141.3357  164.4011 S.2     1  UNL1       -0.0719
      3 C         139.5725  140.4668  165.3002 C.ar    1  UNL1        0.0352
      4 C         139.8056  139.1620  164.5977 C.ar    1  UNL1        0.0129
      5 C         139.1210  139.2246  163.2646 C.ar    1  UNL1        0.0732
      6 C         140.0791  140.8375  166.6625 C.ar    1  UNL1        0.0609
      7 C         141.1579  141.8698  166.8062 C.ar    1  UNL1        0.1425
      8 F         141.7301  142.5314  165.5876 F       1  UNL1       -0.2041
      9 C         141.6646  142.2405  168.1685 C.ar    1  UNL1        0.0278
     10 C         141.0924  141.5789  169.3871 C.ar    1  UNL1        0.0062
     11 C         140.0136  140.5467  169.2434 C.ar    1  UNL1        0.0278
     12 C         139.5070  140.1760  167.8811 C.ar    1  UNL1        0.1425
     13 F         138.4282  139.1437  167.7373 F       1  UNL1       -0.2041
     14 C         141.5991  141.9497  170.7495 C.3     1  UNL1        0.1073
     15 C         142.2879  143.1481  170.1672 C.3     1  UNL1        0.0339
     16 C         140.9102  140.7512  171.3318 C.3     1  UNL1        0.0339
     17 O         142.1057  142.3204  172.1117 O.3     1  UNL1       -0.3827
     18 H         142.6349  143.1310  172.0503 H       1  UNL1        0.2107
     19 C         139.0969  138.1351  162.2339 C.2     1  UNL1        0.2445
     20 N         137.7861  137.5921  161.7471 N.am    1  UNL1       -0.3253
     21 O         140.3835  137.5886  161.6899 O.2     1  UNL1       -0.2703
     22 H         136.9416  137.9508  162.1041 H       1  UNL1        0.1453
     23 H         137.7702  136.8770  161.0706 H       1  UNL1        0.1453
     24 N         137.6692  141.0577  161.9695 N.pl3   1  UNL1       -0.2929
     25 H         136.6902  140.9543  161.9609 H       1  UNL1        0.1541
     26 C         139.8902  143.5838  159.8634 C.ar    1  UNL1        0.0902
     27 C         139.7573  142.9995  158.4883 C.ar    1  UNL1        0.0174
     28 C         138.9284  141.7680  158.2736 C.ar    1  UNL1        0.0042
     29 C         138.2323  141.1207  159.4340 C.ar    1  UNL1        0.0344
     30 C         138.3652  141.7050  160.8091 C.ar    1  UNL1        0.1322
     31 N         139.1942  142.9366  161.0238 N.ar    1  UNL1       -0.2324
     32 C         140.7192  144.8154  160.0781 C.3     1  UNL1        0.1876
     33 O         142.0603  144.7105  160.7417 O.3     1  UNL1       -0.3449
     34 C         142.1810  144.0675  162.0914 C.3     1  UNL1        0.1693
     35 C         144.2496  144.0395  162.5607 C.3     1  UNL1        0.0319
     36 C         143.0373  144.6986  163.1490 C.3     1  UNL1        0.1157
     37 C         141.8251  145.3576  163.7373 C.3     1  UNL1        0.0319
     38 O         143.8937  145.3296  164.2066 O.3     1  UNL1       -0.3843
     39 H         144.3872  144.6398  164.6772 H       1  UNL1        0.2103
@<TRIPOS>BOND
     1    35    36    1
     2    36    37    1
     3    36    38    1
     4    36    34    1
     5    34    33    1
     6    33    32    1
     7    32    26    1
     8    26    27   ar
     9    27    28   ar
    10    28    29   ar
    11    29    30   ar
    12    30    24    1
    13    24     1    1
    14     1     2   ar
    15     2     3   ar
    16     3     6    1
    17     6     7   ar
    18     7     8    1
    19     7     9   ar
    20     9    10   ar
    21    10    14    1
    22    14    15    1
    23    14    16    1
    24    14    17    1
    25    10    11   ar
    26    11    12   ar
    27    12    13    1
    28     3     4   ar
    29     4     5   ar
    30     5    19    1
    31    19    20   am
    32    19    21    2
    33    30    31   ar
    34    31    26   ar
    35     5     1   ar
    36    12     6   ar
    37    38    39    1
    38    24    25    1
    39    17    18    1
    40    20    22    1
    41    20    23    1
@<TRIPOS>MOLECULE
*****
 39 41 0 0 0
SMALL
GASTEIGER

@<TRIPOS>ATOM
      1 C         143.8061  140.9368  162.5945 C.ar    1  UNL1        0.0841
      2 S         143.5097  141.4087  163.9871 S.2     1  UNL1       -0.0719
      3 C         142.8398  140.2869  164.7238 C.ar    1  UNL1        0.0352
      4 C         142.7221  139.1217  163.7865 C.ar    1  UNL1        0.0129
      5 C         143.3194  139.5234  162.4705 C.ar    1  UNL1        0.0732
      6 C         142.3699  140.3237  166.1479 C.ar    1  UNL1        0.0609
      7 C         142.9209  139.3479  167.1449 C.ar    1  UNL1        0.1425
      8 F         143.9417  138.3351  166.7180 F       1  UNL1       -0.2041
      9 C         142.4511  139.3847  168.5690 C.ar    1  UNL1        0.0278
     10 C         141.4303  140.3975  168.9960 C.ar    1  UNL1        0.0062
     11 C         140.8793  141.3733  167.9990 C.ar    1  UNL1        0.0278
     12 C         141.3492  141.3365  166.5749 C.ar    1  UNL1        0.1425
     13 F         140.7982  142.3123  165.5778 F       1  UNL1       -0.2041
     14 C         140.9604  140.4343  170.4201 C.3     1  UNL1        0.1073
     15 C         139.5378  140.3463  169.9530 C.3     1  UNL1        0.0339
     16 C         142.3832  140.5224  170.8872 C.3     1  UNL1        0.0339
     17 O         140.4906  140.4712  171.8440 O.3     1  UNL1       -0.3827
     18 H         139.5220  140.4254  171.8662 H       1  UNL1        0.2107
     19 C         143.4134  138.6628  161.2455 C.2     1  UNL1        0.2445
     20 N         142.6690  137.3620  161.1839 N.am    1  UNL1       -0.3253
     21 O         144.2517  139.1031  160.0822 O.2     1  UNL1       -0.2703
     22 H         142.1188  137.0730  161.9474 H       1  UNL1        0.1453
     23 H         142.7307  136.7971  160.3799 H       1  UNL1        0.1453
     24 N         144.4723  141.7378  161.5153 N.pl3   1  UNL1       -0.2929
     25 H         145.4509  141.7072  161.4126 H       1  UNL1        0.1541
     26 C         141.7412  144.3120  160.2250 C.ar    1  UNL1        0.0902
     27 C         141.9977  144.2804  158.7474 C.ar    1  UNL1        0.0174
     28 C         143.0790  143.4013  158.1925 C.ar    1  UNL1        0.0042
     29 C         143.9038  142.5538  159.1151 C.ar    1  UNL1        0.0344
     30 C         143.6474  142.5853  160.5927 C.ar    1  UNL1        0.1322
     31 N         142.5661  143.4645  161.1476 N.ar    1  UNL1       -0.2324
     32 C         140.6600  145.1911  160.7799 C.3     1  UNL1        0.1876
     33 O         139.4528  144.5783  161.4259 O.3     1  UNL1       -0.3449
     34 C         139.0667  144.9731  162.8205 C.3     1  UNL1        0.1693
     35 C         137.9307  143.2109  162.4981 C.3     1  UNL1        0.0319
     36 C         138.3498  143.9967  163.7051 C.3     1  UNL1        0.1157
     37 C         138.7689  144.7824  164.9121 C.3     1  UNL1        0.0319
     38 O         137.6328  143.0202  164.5897 O.3     1  UNL1       -0.3843
     39 H         136.7057  142.9530  164.3125 H       1  UNL1        0.2103
@<TRIPOS>BOND
     1    35    36    1
     2    36    37    1
     3    36    38    1
     4    36    34    1
     5    34    33    1
     6    33    32    1
     7    32    26    1
     8    26    27   ar
     9    27    28   ar
    10    28    29   ar
    11    29    30   ar
    12    30    24    1
    13    24     1    1
    14     1     2   ar
    15     2     3   ar
    16     3     6    1
    17     6     7   ar
    18     7     8    1
    19     7     9   ar
    20     9    10   ar
    21    10    14    1
    22    14    15    1
    23    14    16    1
    24    14    17    1
    25    10    11   ar
    26    11    12   ar
    27    12    13    1
    28     3     4   ar
    29     4     5   ar
    30     5    19    1
    31    19    20   am
    32    19    21    2
    33    30    31   ar
    34    31    26   ar
    35     5     1   ar
    36    12     6   ar
    37    38    39    1
    38    24    25    1
    39    17    18    1
    40    20    22    1
    41    20    23    1
@<TRIPOS>MOLECULE
*****
 39 41 0 0 0
SMALL
GASTEIGER

@<TRIPOS>ATOM
      1 C         138.3811  141.3847  163.0212 C.ar    1  UNL1        0.0841
      2 S         138.9515  141.8749  164.3189 S.2     1  UNL1       -0.0719
      3 C         139.2907  140.6784  165.1576 C.ar    1  UNL1        0.0352
      4 C         138.9299  139.4487  164.3781 C.ar    1  UNL1        0.0129
      5 C         138.3677  139.8852  163.0577 C.ar    1  UNL1        0.0732
      6 C         139.8862  140.7067  166.5340 C.ar    1  UNL1        0.0609
      7 C         139.2444  139.9297  167.6450 C.ar    1  UNL1        0.1425
      8 F         138.0069  139.1244  167.3795 F       1  UNL1       -0.2041
      9 C         139.8398  139.9579  169.0215 C.ar    1  UNL1        0.0278
     10 C         141.0772  140.7632  169.2870 C.ar    1  UNL1        0.0062
     11 C         141.7190  141.5402  168.1760 C.ar    1  UNL1        0.0278
     12 C         141.1236  141.5120  166.7995 C.ar    1  UNL1        0.1425
     13 F         141.7654  142.2890  165.6886 F       1  UNL1       -0.2041
     14 C         141.6727  140.7915  170.6634 C.3     1  UNL1        0.1073
     15 C         142.6165  139.6915  170.2777 C.3     1  UNL1        0.0339
     16 C         140.7287  141.8916  171.0492 C.3     1  UNL1        0.0339
     17 O         142.2681  140.8198  172.0398 O.3     1  UNL1       -0.3827
     18 H         142.9720  140.1551  172.1013 H       1  UNL1        0.2107
     19 C         137.8782  138.9809  161.9657 C.2     1  UNL1        0.2445
     20 N         138.1443  137.5065  162.0371 N.am    1  UNL1       -0.3253
     21 O         137.1225  139.5512  160.8022 O.2     1  UNL1       -0.2703
     22 H         138.6403  137.1322  162.8007 H       1  UNL1        0.1453
     23 H         137.8229  136.9130  161.3203 H       1  UNL1        0.1453
     24 N         137.9072  142.2432  161.8861 N.pl3   1  UNL1       -0.2929
     25 H         136.9894  142.5995  161.8883 H       1  UNL1        0.1541
     26 C         141.1661  143.3053  159.8858 C.ar    1  UNL1        0.0902
     27 C         140.6805  143.1904  158.4712 C.ar    1  UNL1        0.0174
     28 C         139.2705  142.7598  158.1950 C.ar    1  UNL1        0.0042
     29 C         138.3460  142.4441  159.3333 C.ar    1  UNL1        0.0344
     30 C         138.8316  142.5590  160.7478 C.ar    1  UNL1        0.1322
     31 N         140.2417  142.9896  161.0241 N.ar    1  UNL1       -0.2324
     32 C         142.5762  143.7360  160.1620 C.3     1  UNL1        0.1876
     33 O         142.9549  144.2338  161.5254 O.3     1  UNL1       -0.3449
     34 C         144.1755  143.6928  162.2091 C.3     1  UNL1        0.1693
     35 C         143.6059  145.0994  163.6914 C.3     1  UNL1        0.0319
     36 C         144.2930  143.7660  163.7027 C.3     1  UNL1        0.1157
     37 C         144.9801  142.4327  163.7139 C.3     1  UNL1        0.0319
     38 O         144.4105  143.8393  165.1962 O.3     1  UNL1       -0.3843
     39 H         144.8666  144.6584  165.4449 H       1  UNL1        0.2103
@<TRIPOS>BOND
     1    35    36    1
     2    36    37    1
     3    36    38    1
     4    36    34    1
     5    34    33    1
     6    33    32    1
     7    32    26    1
     8    26    27   ar
     9    27    28   ar
    10    28    29   ar
    11    29    30   ar
    12    30    24    1
    13    24     1    1
    14     1     2   ar
    15     2     3   ar
    16     3     6    1
    17     6     7   ar
    18     7     8    1
    19     7     9   ar
    20     9    10   ar
    21    10    14    1
    22    14    15    1
    23    14    16    1
    24    14    17    1
    25    10    11   ar
    26    11    12   ar
    27    12    13    1
    28     3     4   ar
    29     4     5   ar
    30     5    19    1
    31    19    20   am
    32    19    21    2
    33    30    31   ar
    34    31    26   ar
    35     5     1   ar
    36    12     6   ar
    37    38    39    1
    38    24    25    1
    39    17    18    1
    40    20    22    1
    41    20    23    1
@<TRIPOS>MOLECULE
*****
 39 41 0 0 0
SMALL
GASTEIGER

@<TRIPOS>ATOM
      1 C         140.0729  139.5801  162.5354 C.ar    1  UNL1        0.0841
      2 S         140.6002  139.6420  163.9383 S.2     1  UNL1       -0.0719
      3 C         139.6989  140.5397  164.7331 C.ar    1  UNL1        0.0352
      4 C         138.6146  141.0328  163.8213 C.ar    1  UNL1        0.0129
      5 C         138.8458  140.4397  162.4631 C.ar    1  UNL1        0.0732
      6 C         139.8546  140.8840  166.1847 C.ar    1  UNL1        0.0609
      7 C         139.3597  139.9370  167.2374 C.ar    1  UNL1        0.1425
      8 F         138.7091  138.6456  166.8385 F       1  UNL1       -0.2041
      9 C         139.5153  140.2812  168.6891 C.ar    1  UNL1        0.0278
     10 C         140.1659  141.5726  169.0880 C.ar    1  UNL1        0.0062
     11 C         140.6608  142.5197  168.0353 C.ar    1  UNL1        0.0278
     12 C         140.5051  142.1754  166.5837 C.ar    1  UNL1        0.1425
     13 F         141.0000  143.1225  165.5310 F       1  UNL1       -0.2041
     14 C         140.3216  141.9169  170.5397 C.3     1  UNL1        0.1073
     15 C         140.4520  140.4600  170.8712 C.3     1  UNL1        0.0339
     16 C         140.1911  143.3740  170.2081 C.3     1  UNL1        0.0339
     17 O         140.4772  142.2612  171.9912 O.3     1  UNL1       -0.3827
     18 H         140.5903  141.4471  172.5063 H       1  UNL1        0.2107
     19 C         137.9986  140.6665  161.2463 C.2     1  UNL1        0.2445
     20 N         136.9960  139.6325  160.8271 N.am    1  UNL1       -0.3253
     21 O         138.1539  141.9272  160.4485 O.2     1  UNL1       -0.2703
     22 H         136.8940  138.8050  161.3507 H       1  UNL1        0.1453
     23 H         136.4399  139.7813  160.0285 H       1  UNL1        0.1453
     24 N         140.6683  138.7964  161.4036 N.pl3   1  UNL1       -0.2929
     25 H         140.3754  137.8712  161.2378 H       1  UNL1        0.1541
     26 C         143.6144  141.1547  160.1751 C.ar    1  UNL1        0.0902
     27 C         143.7935  140.6737  158.7656 C.ar    1  UNL1        0.0174
     28 C         142.9310  139.5670  158.2355 C.ar    1  UNL1        0.0042
     29 C         141.8892  138.9412  159.1148 C.ar    1  UNL1        0.0344
     30 C         141.7101  139.4221  160.5243 C.ar    1  UNL1        0.1322
     31 N         142.5727  140.5289  161.0544 N.ar    1  UNL1       -0.2324
     32 C         144.4770  142.2614  160.7053 C.3     1  UNL1        0.1876
     33 O         143.8501  143.5379  161.1825 O.3     1  UNL1       -0.3449
     34 C         143.2522  143.6120  162.5562 C.3     1  UNL1        0.1693
     35 C         141.3383  144.3226  161.9802 C.3     1  UNL1        0.0319
     36 C         142.3960  144.7824  162.9393 C.3     1  UNL1        0.1157
     37 C         143.4536  145.2422  163.8984 C.3     1  UNL1        0.0319
     38 O         141.5397  145.9529  163.3225 O.3     1  UNL1       -0.3843
     39 H         141.3075  146.4577  162.5274 H       1  UNL1        0.2103
@<TRIPOS>BOND
     1    35    36    1
     2    36    37    1
     3    36    38    1
     4    36    34    1
     5    34    33    1
     6    33    32    1
     7    32    26    1
     8    26    27   ar
     9    27    28   ar
    10    28    29   ar
    11    29    30   ar
    12    30    24    1
    13    24     1    1
    14     1     2   ar
    15     2     3   ar
    16     3     6    1
    17     6     7   ar
    18     7     8    1
    19     7     9   ar
    20     9    10   ar
    21    10    14    1
    22    14    15    1
    23    14    16    1
    24    14    17    1
    25    10    11   ar
    26    11    12   ar
    27    12    13    1
    28     3     4   ar
    29     4     5   ar
    30     5    19    1
    31    19    20   am
    32    19    21    2
    33    30    31   ar
    34    31    26   ar
    35     5     1   ar
    36    12     6   ar
    37    38    39    1
    38    24    25    1
    39    17    18    1
    40    20    22    1
    41    20    23    1
@<TRIPOS>MOLECULE
*****
 39 41 0 0 0
SMALL
GASTEIGER

@<TRIPOS>ATOM
      1 C         141.9896  142.4586  162.4941 C.ar    1  UNL1        0.0841
      2 S         142.1506  141.6663  163.7576 S.2     1  UNL1       -0.0719
      3 C         141.8199  142.5639  164.9129 C.ar    1  UNL1        0.0352
      4 C         141.4544  143.9111  164.3635 C.ar    1  UNL1        0.0129
      5 C         141.5593  143.8459  162.8686 C.ar    1  UNL1        0.0732
      6 C         141.8494  142.1816  166.3631 C.ar    1  UNL1        0.0609
      7 C         140.6588  141.5166  166.9878 C.ar    1  UNL1        0.1425
      8 F         139.4386  141.2338  166.1623 F       1  UNL1       -0.2041
      9 C         140.6882  141.1342  168.4380 C.ar    1  UNL1        0.0278
     10 C         141.9084  141.4170  169.2635 C.ar    1  UNL1        0.0062
     11 C         143.0990  142.0820  168.6388 C.ar    1  UNL1        0.0278
     12 C         143.0694  142.4643  167.1886 C.ar    1  UNL1        0.1425
     13 F         144.2600  143.1294  166.5639 F       1  UNL1       -0.2041
     14 C         141.9379  141.0346  170.7136 C.3     1  UNL1        0.1073
     15 C         142.9722  139.9896  170.4171 C.3     1  UNL1        0.0339
     16 C         140.9036  142.0798  171.0102 C.3     1  UNL1        0.0339
     17 O         141.9674  140.6523  172.1637 O.3     1  UNL1       -0.3827
     18 H         142.6044  139.9327  172.2955 H       1  UNL1        0.2107
     19 C         141.2825  144.9707  161.9156 C.2     1  UNL1        0.2445
     20 N         140.4906  146.1609  162.3698 N.am    1  UNL1       -0.3253
     21 O         141.7975  144.9051  160.5083 O.2     1  UNL1       -0.2703
     22 H         140.1526  146.2039  163.2934 H       1  UNL1        0.1453
     23 H         140.3090  146.8991  161.7443 H       1  UNL1        0.1453
     24 N         142.2187  141.9525  161.1008 N.pl3   1  UNL1       -0.2929
     25 H         143.0772  142.1229  160.6502 H       1  UNL1        0.1541
     26 C         138.9115  139.8524  160.4662 C.ar    1  UNL1        0.0902
     27 C         138.9816  139.6553  158.9808 C.ar    1  UNL1        0.0174
     28 C         140.1307  140.2239  158.2022 C.ar    1  UNL1        0.0042
     29 C         141.2097  140.9897  158.9089 C.ar    1  UNL1        0.0344
     30 C         141.1396  141.1868  160.3942 C.ar    1  UNL1        0.1322
     31 N         139.9906  140.6181  161.1729 N.ar    1  UNL1       -0.2324
     32 C         137.7625  139.2838  161.2449 C.3     1  UNL1        0.1876
     33 O         137.9669  138.8300  162.6599 O.3     1  UNL1       -0.3449
     34 C         138.8679  137.6669  162.9518 C.3     1  UNL1        0.1693
     35 C         140.9836  137.5363  162.8691 C.3     1  UNL1        0.0319
     36 C         139.9793  137.8108  163.9489 C.3     1  UNL1        0.1157
     37 C         138.9749  138.0854  165.0287 C.3     1  UNL1        0.0319
     38 O         141.0906  137.9548  164.9460 O.3     1  UNL1       -0.3843
     39 H         141.6369  137.1533  164.9392 H       1  UNL1        0.2103
@<TRIPOS>BOND
     1    35    36    1
     2    36    37    1
     3    36    38    1
     4    36    34    1
     5    34    33    1
     6    33    32    1
     7    32    26    1
     8    26    27   ar
     9    27    28   ar
    10    28    29   ar
    11    29    30   ar
    12    30    24    1
    13    24     1    1
    14     1     2   ar
    15     2     3   ar
    16     3     6    1
    17     6     7   ar
    18     7     8    1
    19     7     9   ar
    20     9    10   ar
    21    10    14    1
    22    14    15    1
    23    14    16    1
    24    14    17    1
    25    10    11   ar
    26    11    12   ar
    27    12    13    1
    28     3     4   ar
    29     4     5   ar
    30     5    19    1
    31    19    20   am
    32    19    21    2
    33    30    31   ar
    34    31    26   ar
    35     5     1   ar
    36    12     6   ar
    37    38    39    1
    38    24    25    1
    39    17    18    1
    40    20    22    1
    41    20    23    1
@<TRIPOS>MOLECULE
*****
 39 41 0 0 0
SMALL
GASTEIGER

@<TRIPOS>ATOM
      1 C         141.4103  142.7465  161.9101 C.ar    1  UNL1        0.0841
      2 S         141.6549  142.0929  163.2379 S.2     1  UNL1       -0.0719
      3 C         141.4545  143.1259  164.3069 C.ar    1  UNL1        0.0352
      4 C         141.0860  144.4180  163.6398 C.ar    1  UNL1        0.0129
      5 C         141.0587  144.1834  162.1585 C.ar    1  UNL1        0.0732
      6 C         141.5974  142.9056  165.7838 C.ar    1  UNL1        0.0609
      7 C         142.9311  142.5343  166.3611 C.ar    1  UNL1        0.1425
      8 F         144.1220  142.3833  165.4615 F       1  UNL1       -0.2041
      9 C         143.0742  142.3140  167.8379 C.ar    1  UNL1        0.0278
     10 C         141.8833  142.4650  168.7375 C.ar    1  UNL1        0.0062
     11 C         140.5496  142.8363  168.1602 C.ar    1  UNL1        0.0278
     12 C         140.4066  143.0566  166.6833 C.ar    1  UNL1        0.1425
     13 F         139.0729  143.4279  166.1060 F       1  UNL1       -0.2041
     14 C         142.0263  142.2447  170.2143 C.3     1  UNL1        0.1073
     15 C         143.5189  142.2275  170.0673 C.3     1  UNL1        0.0339
     16 C         140.5336  142.2619  170.3614 C.3     1  UNL1        0.0339
     17 O         142.1692  142.0244  171.6911 O.3     1  UNL1       -0.3827
     18 H         143.1101  141.9664  171.9197 H       1  UNL1        0.2107
     19 C         140.7364  145.2062  161.1098 C.2     1  UNL1        0.2445
     20 N         141.7220  145.4961  160.0168 N.am    1  UNL1       -0.3253
     21 O         139.4284  145.9393  161.1540 O.2     1  UNL1       -0.2703
     22 H         142.5805  145.0149  159.9878 H       1  UNL1        0.1453
     23 H         141.5105  146.1674  159.3285 H       1  UNL1        0.1453
     24 N         141.5013  142.0801  160.5694 N.pl3   1  UNL1       -0.2929
     25 H         142.0056  142.5081  159.8402 H       1  UNL1        0.1541
     26 C         139.1900  138.9033  161.1316 C.ar    1  UNL1        0.0902
     27 C         139.4688  138.1249  159.8800 C.ar    1  UNL1        0.0174
     28 C         140.4250  138.6649  158.8583 C.ar    1  UNL1        0.0042
     29 C         141.1025  139.9833  159.0881 C.ar    1  UNL1        0.0344
     30 C         140.8238  140.7617  160.3396 C.ar    1  UNL1        0.1322
     31 N         139.8675  140.2217  161.3614 N.ar    1  UNL1       -0.2324
     32 C         138.2337  138.3633  162.1533 C.3     1  UNL1        0.1876
     33 O         138.7137  137.3908  163.1896 O.3     1  UNL1       -0.3449
     34 C         138.9552  137.8521  164.5963 C.3     1  UNL1        0.1693
     35 C         139.5713  139.6963  165.4443 C.3     1  UNL1        0.0319
     36 C         140.2748  138.4592  164.9704 C.3     1  UNL1        0.1157
     37 C         140.9783  137.2221  164.4964 C.3     1  UNL1        0.0319
     38 O         141.5945  139.0663  165.3444 O.3     1  UNL1       -0.3843
     39 H         141.6949  139.9217  164.8982 H       1  UNL1        0.2103
@<TRIPOS>BOND
     1    35    36    1
     2    36    37    1
     3    36    38    1
     4    36    34    1
     5    34    33    1
     6    33    32    1
     7    32    26    1
     8    26    27   ar
     9    27    28   ar
    10    28    29   ar
    11    29    30   ar
    12    30    24    1
    13    24     1    1
    14     1     2   ar
    15     2     3   ar
    16     3     6    1
    17     6     7   ar
    18     7     8    1
    19     7     9   ar
    20     9    10   ar
    21    10    14    1
    22    14    15    1
    23    14    16    1
    24    14    17    1
    25    10    11   ar
    26    11    12   ar
    27    12    13    1
    28     3     4   ar
    29     4     5   ar
    30     5    19    1
    31    19    20   am
    32    19    21    2
    33    30    31   ar
    34    31    26   ar
    35     5     1   ar
    36    12     6   ar
    37    38    39    1
    38    24    25    1
    39    17    18    1
    40    20    22    1
    41    20    23    1
