@<TRIPOS>MOLECULE
*****
 37 39 0 0 0
SMALL
GASTEIGER

@<TRIPOS>ATOM
      1 C         138.7502  141.2059  164.5262 C.3     1  UNL1        0.0800
      2 C         139.6133  142.2228  165.2125 C.3     1  UNL1        0.0372
      3 C         140.0616  141.9947  166.6256 C.3     1  UNL1        0.0738
      4 N         139.6468  140.7499  167.3525 N.3     1  UNL1       -0.2738
      5 C         138.7837  139.7331  166.6662 C.3     1  UNL1        0.0738
      6 C         138.3354  139.9611  165.2531 C.3     1  UNL1        0.0372
      7 N         137.9432  140.5508  160.6961 N.am    1  UNL1       -0.1773
      8 C         138.3915  140.3228  162.1093 C.2     1  UNL1        0.3266
      9 O         138.9295  138.9838  162.5187 O.2     1  UNL1       -0.2504
     10 N         138.3018  141.4339  163.1130 N.am    1  UNL1       -0.2600
     11 H         137.5901  141.4296  160.4274 H       1  UNL1        0.1841
     12 C         139.3280  139.1708  158.9849 C.3     1  UNL1        0.2056
     13 O         138.0328  139.4397  159.6924 O.3     1  UNL1       -0.2624
     14 C         137.7638  142.7729  162.7036 C.3     1  UNL1        0.1222
     15 C         138.6936  143.8256  162.1769 C.ar    1  UNL1        0.0047
     16 C         139.5565  143.7086  160.9556 C.ar    1  UNL1        0.0049
     17 C         140.3200  144.9909  160.8029 C.ar    1  UNL1        0.0352
     18 S         139.9288  145.9002  161.9299 S.2     1  UNL1       -0.0862
     19 C         138.9237  145.1800  162.7791 C.ar    1  UNL1        0.0328
     20 C         140.0951  140.5219  168.7657 C.3     1  UNL1        0.0592
     21 C         139.0796  140.3469  169.8557 C.3     1  UNL1        0.0174
     22 C         141.5589  140.4690  169.0888 C.3     1  UNL1        0.0372
     23 C         142.4655  139.5589  168.3143 C.3     1  UNL1        0.0911
     24 N         142.3975  139.5300  166.8162 N.am    1  UNL1       -0.3008
     25 C         143.2970  138.6123  166.0422 C.2     1  UNL1        0.2479
     26 O         144.2643  137.7237  166.7663 O.2     1  UNL1       -0.2701
     27 H         141.7626  140.1132  166.3408 H       1  UNL1        0.1497
     28 C         143.2290  138.5834  164.5440 C.ar    1  UNL1        0.0779
     29 C         144.2394  139.3390  163.7327 C.ar    1  UNL1       -0.0130
     30 C         145.3177  140.1234  164.4195 C.3     1  UNL1        0.0313
     31 C         144.1715  139.3101  162.2345 C.ar    1  UNL1        0.0256
     32 C         143.0931  138.5256  161.5476 C.ar    1  UNL1        0.1498
     33 N         142.0827  137.7700  162.3589 N.ar    1  UNL1       -0.2235
     34 C         142.1506  137.7989  163.8571 C.ar    1  UNL1        0.1431
     35 CL        141.1403  137.0434  164.6684 Cl      1  UNL1       -0.0612
     36 C         143.0252  138.4967  160.0494 C.1     1  UNL1        0.1198
     37 N         142.9572  138.4678  158.5512 N.1     1  UNL1       -0.1893
@<TRIPOS>BOND
     1    12    13    1
     2    13     7    1
     3     7     8   am
     4     8     9    2
     5     8    10   am
     6    10    14    1
     7    14    15    1
     8    15    16   ar
     9    16    17   ar
    10    17    18   ar
    11    18    19   ar
    12    10     1    1
    13     1     2    1
    14     2     3    1
    15     3     4    1
    16     4    20    1
    17    20    21    1
    18    20    22    1
    19    22    23    1
    20    23    24    1
    21    24    25   am
    22    25    26    2
    23    25    28    1
    24    28    29   ar
    25    29    30    1
    26    29    31   ar
    27    31    32   ar
    28    32    36    1
    29    36    37    3
    30    32    33   ar
    31    33    34   ar
    32    34    35    1
    33     4     5    1
    34     5     6    1
    35    19    15   ar
    36     6     1    1
    37    34    28   ar
    38     7    11    1
    39    24    27    1
@<TRIPOS>MOLECULE
*****
 37 39 0 0 0
SMALL
GASTEIGER

@<TRIPOS>ATOM
      1 C         140.5841  142.8980  160.8024 C.3     1  UNL1        0.0800
      2 C         139.5167  141.8619  160.6102 C.3     1  UNL1        0.0372
      3 C         139.7545  140.4489  161.0541 C.3     1  UNL1        0.0738
      4 N         141.0597  140.0722  161.6901 N.3     1  UNL1       -0.2738
      5 C         142.1271  141.1084  161.8823 C.3     1  UNL1        0.0738
      6 C         141.8893  142.5213  161.4385 C.3     1  UNL1        0.0372
      7 N         140.2538  146.0899  158.4672 N.am    1  UNL1       -0.1773
      8 C         140.4915  144.6770  158.9111 C.2     1  UNL1        0.3266
      9 O         140.8744  143.6299  157.9075 O.2     1  UNL1       -0.2504
     10 N         140.3464  144.3110  160.3585 N.am    1  UNL1       -0.2600
     11 H         140.0025  146.7771  159.1259 H       1  UNL1        0.1841
     12 C         139.1956  146.8735  156.2275 C.3     1  UNL1        0.2056
     13 O         140.3989  146.4558  157.0198 O.3     1  UNL1       -0.2624
     14 C         139.9635  145.3581  161.3621 C.3     1  UNL1        0.1222
     15 C         139.4023  144.9520  162.6926 C.ar    1  UNL1        0.0047
     16 C         140.1297  144.9868  164.0040 C.ar    1  UNL1        0.0049
     17 C         139.1922  144.4963  165.0672 C.ar    1  UNL1        0.0352
     18 S         137.8853  144.1583  164.4129 S.2     1  UNL1       -0.0862
     19 C         138.0152  144.4400  162.9453 C.ar    1  UNL1        0.0328
     20 C         141.2975  138.6592  162.1340 C.3     1  UNL1        0.0592
     21 C         142.6552  138.2432  162.6171 C.3     1  UNL1        0.0174
     22 C         140.1774  137.6622  162.0947 C.3     1  UNL1        0.0372
     23 C         139.1442  137.6517  163.1821 C.3     1  UNL1        0.0911
     24 N         139.4931  138.1506  164.5530 N.am    1  UNL1       -0.3008
     25 C         138.8902  139.4260  165.0629 C.2     1  UNL1        0.2479
     26 O         137.9385  140.2024  164.2019 O.2     1  UNL1       -0.2701
     27 H         140.1177  137.6410  165.1181 H       1  UNL1        0.1497
     28 C         139.2390  139.9248  166.4339 C.ar    1  UNL1        0.0779
     29 C         140.3227  140.9474  166.6066 C.ar    1  UNL1       -0.0130
     30 C         141.0575  141.4712  165.4084 C.3     1  UNL1        0.0313
     31 C         140.6715  141.4463  167.9775 C.ar    1  UNL1        0.0256
     32 C         139.9367  140.9226  169.1757 C.ar    1  UNL1        0.1498
     33 N         138.8530  139.8999  169.0030 N.ar    1  UNL1       -0.2235
     34 C         138.5041  139.4011  167.6321 C.ar    1  UNL1        0.1431
     35 CL        137.4205  138.3785  167.4593 Cl      1  UNL1       -0.0612
     36 C         140.2856  141.4214  170.5466 C.1     1  UNL1        0.1198
     37 N         140.6344  141.9203  171.9176 N.1     1  UNL1       -0.1893
@<TRIPOS>BOND
     1    12    13    1
     2    13     7    1
     3     7     8   am
     4     8     9    2
     5     8    10   am
     6    10    14    1
     7    14    15    1
     8    15    16   ar
     9    16    17   ar
    10    17    18   ar
    11    18    19   ar
    12    10     1    1
    13     1     2    1
    14     2     3    1
    15     3     4    1
    16     4    20    1
    17    20    21    1
    18    20    22    1
    19    22    23    1
    20    23    24    1
    21    24    25   am
    22    25    26    2
    23    25    28    1
    24    28    29   ar
    25    29    30    1
    26    29    31   ar
    27    31    32   ar
    28    32    36    1
    29    36    37    3
    30    32    33   ar
    31    33    34   ar
    32    34    35    1
    33     4     5    1
    34     5     6    1
    35    19    15   ar
    36     6     1    1
    37    34    28   ar
    38     7    11    1
    39    24    27    1
@<TRIPOS>MOLECULE
*****
 37 39 0 0 0
SMALL
GASTEIGER

@<TRIPOS>ATOM
      1 C         142.2399  142.9341  164.2049 C.3     1  UNL1        0.0800
      2 C         140.7913  143.1723  164.5130 C.3     1  UNL1        0.0372
      3 C         140.2753  142.9563  165.9048 C.3     1  UNL1        0.0738
      4 N         141.2079  142.5023  166.9884 N.3     1  UNL1       -0.2738
      5 C         142.6564  142.2641  166.6803 C.3     1  UNL1        0.0738
      6 C         143.1724  142.4801  165.2885 C.3     1  UNL1        0.0372
      7 N         142.5791  144.3314  160.5059 N.am    1  UNL1       -0.1773
      8 C         142.0631  144.1155  161.8976 C.2     1  UNL1        0.3266
      9 O         140.8542  144.8650  162.3741 O.2     1  UNL1       -0.2504
     10 N         142.7559  143.1501  162.8130 N.am    1  UNL1       -0.2600
     11 H         143.3725  143.8395  160.1932 H       1  UNL1        0.1841
     12 C         141.8787  145.0533  158.1103 C.3     1  UNL1        0.2056
     13 O         141.8863  145.2969  159.5905 O.3     1  UNL1       -0.2624
     14 C         143.9647  142.4006  162.3367 C.3     1  UNL1        0.1222
     15 C         143.8413  140.9646  161.9209 C.ar    1  UNL1        0.0047
     16 C         143.8953  139.7750  162.8329 C.ar    1  UNL1        0.0049
     17 C         143.7295  138.5413  161.9958 C.ar    1  UNL1        0.0352
     18 S         143.5730  138.9686  160.5664 S.2     1  UNL1       -0.0862
     19 C         143.6421  140.4663  160.5202 C.ar    1  UNL1        0.0328
     20 C         140.6918  142.2863  168.3803 C.3     1  UNL1        0.0592
     21 C         140.3940  143.4636  169.2608 C.3     1  UNL1        0.0174
     22 C         140.4736  140.8931  168.8915 C.3     1  UNL1        0.0372
     23 C         139.6557  139.9211  168.0940 C.3     1  UNL1        0.0911
     24 N         139.8952  139.7708  166.6208 N.am    1  UNL1       -0.3008
     25 C         138.8708  139.0932  165.7597 C.2     1  UNL1        0.2479
     26 O         137.6070  138.5658  166.3717 O.2     1  UNL1       -0.2701
     27 H         140.7248  140.1170  166.2192 H       1  UNL1        0.1497
     28 C         139.1104  138.9430  164.2866 C.ar    1  UNL1        0.0779
     29 C         138.4909  139.9117  163.3234 C.ar    1  UNL1       -0.0130
     30 C         137.6318  141.0306  163.8333 C.3     1  UNL1        0.0313
     31 C         138.7304  139.7614  161.8503 C.ar    1  UNL1        0.0256
     32 C         139.5894  138.6425  161.3404 C.ar    1  UNL1        0.1498
     33 N         140.2089  137.6738  162.3036 N.ar    1  UNL1       -0.2235
     34 C         139.9694  137.8240  163.7767 C.ar    1  UNL1        0.1431
     35 CL        140.5889  136.8553  164.7399 Cl      1  UNL1       -0.0612
     36 C         139.8289  138.4923  159.8672 C.1     1  UNL1        0.1198
     37 N         140.0684  138.3421  158.3941 N.1     1  UNL1       -0.1893
@<TRIPOS>BOND
     1    12    13    1
     2    13     7    1
     3     7     8   am
     4     8     9    2
     5     8    10   am
     6    10    14    1
     7    14    15    1
     8    15    16   ar
     9    16    17   ar
    10    17    18   ar
    11    18    19   ar
    12    10     1    1
    13     1     2    1
    14     2     3    1
    15     3     4    1
    16     4    20    1
    17    20    21    1
    18    20    22    1
    19    22    23    1
    20    23    24    1
    21    24    25   am
    22    25    26    2
    23    25    28    1
    24    28    29   ar
    25    29    30    1
    26    29    31   ar
    27    31    32   ar
    28    32    36    1
    29    36    37    3
    30    32    33   ar
    31    33    34   ar
    32    34    35    1
    33     4     5    1
    34     5     6    1
    35    19    15   ar
    36     6     1    1
    37    34    28   ar
    38     7    11    1
    39    24    27    1
@<TRIPOS>MOLECULE
*****
 37 39 0 0 0
SMALL
GASTEIGER

@<TRIPOS>ATOM
      1 C         140.5859  140.6425  166.5969 C.3     1  UNL1        0.0800
      2 C         141.9247  139.9660  166.5882 C.3     1  UNL1        0.0372
      3 C         143.1151  140.6666  166.0034 C.3     1  UNL1        0.0738
      4 N         142.9668  142.0436  165.4274 N.3     1  UNL1       -0.2738
      5 C         141.6281  142.7200  165.4361 C.3     1  UNL1        0.0738
      6 C         140.4376  142.0195  166.0209 C.3     1  UNL1        0.0372
      7 N         137.9152  139.3531  169.2341 N.am    1  UNL1       -0.1773
      8 C         139.1056  140.0535  168.6493 C.2     1  UNL1        0.3266
      9 O         140.0064  140.8657  169.5320 O.2     1  UNL1       -0.2504
     10 N         139.3954  139.9420  167.1817 N.am    1  UNL1       -0.2600
     11 H         137.3240  138.8201  168.6547 H       1  UNL1        0.1841
     12 C         136.3598  138.8867  171.2623 C.3     1  UNL1        0.2056
     13 O         137.6254  139.4646  170.7016 O.3     1  UNL1       -0.2624
     14 C         138.4947  139.1299  166.2990 C.3     1  UNL1        0.1222
     15 C         138.9384  138.7559  164.9158 C.ar    1  UNL1        0.0047
     16 C         139.8037  137.5853  164.5539 C.ar    1  UNL1        0.0049
     17 C         139.9948  137.5927  163.0660 C.ar    1  UNL1        0.0352
     18 S         139.2476  138.7679  162.5086 S.2     1  UNL1       -0.0862
     19 C         138.5947  139.4867  163.6518 C.ar    1  UNL1        0.0328
     20 C         144.1574  142.7441  164.8426 C.3     1  UNL1        0.0592
     21 C         144.2498  144.2402  164.8991 C.3     1  UNL1        0.0174
     22 C         145.2555  141.9485  164.2013 C.3     1  UNL1        0.0372
     23 C         145.1587  141.5677  162.7537 C.3     1  UNL1        0.0911
     24 N         144.4778  142.4843  161.7809 N.am    1  UNL1       -0.3008
     25 C         143.0088  142.3382  161.5148 C.2     1  UNL1        0.2479
     26 O         142.2207  141.2755  162.2215 O.2     1  UNL1       -0.2701
     27 H         144.9951  143.1818  161.3171 H       1  UNL1        0.1497
     28 C         142.3280  143.2548  160.5420 C.ar    1  UNL1        0.0779
     29 C         142.3248  142.9265  159.0784 C.ar    1  UNL1       -0.0130
     30 C         143.0024  141.6815  158.5876 C.3     1  UNL1        0.0313
     31 C         141.6440  143.8431  158.1057 C.ar    1  UNL1        0.0256
     32 C         140.9664  145.0881  158.5965 C.ar    1  UNL1        0.1498
     33 N         140.9696  145.4165  160.0601 N.ar    1  UNL1       -0.2235
     34 C         141.6504  144.4998  161.0329 C.ar    1  UNL1        0.1431
     35 CL        141.6537  144.8281  162.4965 Cl      1  UNL1       -0.0612
     36 C         140.2856  146.0047  157.6237 C.1     1  UNL1        0.1198
     37 N         139.6048  146.9213  156.6509 N.1     1  UNL1       -0.1893
@<TRIPOS>BOND
     1    12    13    1
     2    13     7    1
     3     7     8   am
     4     8     9    2
     5     8    10   am
     6    10    14    1
     7    14    15    1
     8    15    16   ar
     9    16    17   ar
    10    17    18   ar
    11    18    19   ar
    12    10     1    1
    13     1     2    1
    14     2     3    1
    15     3     4    1
    16     4    20    1
    17    20    21    1
    18    20    22    1
    19    22    23    1
    20    23    24    1
    21    24    25   am
    22    25    26    2
    23    25    28    1
    24    28    29   ar
    25    29    30    1
    26    29    31   ar
    27    31    32   ar
    28    32    36    1
    29    36    37    3
    30    32    33   ar
    31    33    34   ar
    32    34    35    1
    33     4     5    1
    34     5     6    1
    35    19    15   ar
    36     6     1    1
    37    34    28   ar
    38     7    11    1
    39    24    27    1
@<TRIPOS>MOLECULE
*****
 37 39 0 0 0
SMALL
GASTEIGER

@<TRIPOS>ATOM
      1 C         140.9167  143.0805  160.6389 C.3     1  UNL1        0.0800
      2 C         142.2724  142.8909  161.2522 C.3     1  UNL1        0.0372
      3 C         142.7026  141.5305  161.7149 C.3     1  UNL1        0.0738
      4 N         141.7771  140.3597  161.5642 N.3     1  UNL1       -0.2738
      5 C         140.4215  140.5493  160.9509 C.3     1  UNL1        0.0738
      6 C         139.9913  141.9097  160.4882 C.3     1  UNL1        0.0372
      7 N         140.1445  146.1619  158.2601 N.am    1  UNL1       -0.1773
      8 C         140.5747  144.8015  158.7228 C.2     1  UNL1        0.3266
      9 O         141.0932  143.8016  157.7322 O.2     1  UNL1       -0.2504
     10 N         140.4865  144.4410  160.1762 N.am    1  UNL1       -0.2600
     11 H         139.8042  146.8182  158.9103 H       1  UNL1        0.1841
     12 C         139.1243  147.2970  156.1575 C.3     1  UNL1        0.2056
     13 O         140.2328  146.5225  156.8067 O.3     1  UNL1       -0.2624
     14 C         139.9680  145.4409  161.1668 C.3     1  UNL1        0.1222
     15 C         139.4965  144.9850  162.5159 C.ar    1  UNL1        0.0047
     16 C         140.3203  144.9394  163.7686 C.ar    1  UNL1        0.0049
     17 C         139.4515  144.4209  164.8760 C.ar    1  UNL1        0.0352
     18 S         138.0907  144.1461  164.3076 S.2     1  UNL1       -0.0862
     19 C         138.1186  144.4947  162.8490 C.ar    1  UNL1        0.0328
     20 C         142.2074  138.9992  162.0269 C.3     1  UNL1        0.0592
     21 C         143.5745  138.8037  162.6122 C.3     1  UNL1        0.0174
     22 C         141.2704  137.8343  161.9043 C.3     1  UNL1        0.0372
     23 C         140.2469  137.5795  162.9708 C.3     1  UNL1        0.0911
     24 N         140.4477  138.1328  164.3505 N.am    1  UNL1       -0.3008
     25 C         139.6777  139.3416  164.7933 C.2     1  UNL1        0.2479
     26 O         138.7069  139.9971  163.8563 O.2     1  UNL1       -0.2701
     27 H         141.0848  137.7025  164.9655 H       1  UNL1        0.1497
     28 C         139.8785  139.8948  166.1730 C.ar    1  UNL1        0.0779
     29 C         138.9385  139.5136  167.2780 C.ar    1  UNL1       -0.0130
     30 C         137.7978  138.5792  167.0033 C.3     1  UNL1        0.0313
     31 C         139.1393  140.0668  168.6577 C.ar    1  UNL1        0.0256
     32 C         140.2801  141.0013  168.9324 C.ar    1  UNL1        0.1498
     33 N         141.2201  141.3825  167.8274 N.ar    1  UNL1       -0.2235
     34 C         141.0193  140.8293  166.4476 C.ar    1  UNL1        0.1431
     35 CL        141.9592  141.2105  165.3426 Cl      1  UNL1       -0.0612
     36 C         140.4809  141.5545  170.3121 C.1     1  UNL1        0.1198
     37 N         140.6817  142.1077  171.6919 N.1     1  UNL1       -0.1893
@<TRIPOS>BOND
     1    12    13    1
     2    13     7    1
     3     7     8   am
     4     8     9    2
     5     8    10   am
     6    10    14    1
     7    14    15    1
     8    15    16   ar
     9    16    17   ar
    10    17    18   ar
    11    18    19   ar
    12    10     1    1
    13     1     2    1
    14     2     3    1
    15     3     4    1
    16     4    20    1
    17    20    21    1
    18    20    22    1
    19    22    23    1
    20    23    24    1
    21    24    25   am
    22    25    26    2
    23    25    28    1
    24    28    29   ar
    25    29    30    1
    26    29    31   ar
    27    31    32   ar
    28    32    36    1
    29    36    37    3
    30    32    33   ar
    31    33    34   ar
    32    34    35    1
    33     4     5    1
    34     5     6    1
    35    19    15   ar
    36     6     1    1
    37    34    28   ar
    38     7    11    1
    39    24    27    1
@<TRIPOS>MOLECULE
*****
 37 39 0 0 0
SMALL
GASTEIGER

@<TRIPOS>ATOM
      1 C         141.0951  142.7592  163.6288 C.3     1  UNL1        0.0800
      2 C         139.8481  142.4667  164.4094 C.3     1  UNL1        0.0372
      3 C         139.9162  142.3065  165.8992 C.3     1  UNL1        0.0738
      4 N         141.2314  142.4386  166.6084 N.3     1  UNL1       -0.2738
      5 C         142.4784  142.7311  165.8278 C.3     1  UNL1        0.0738
      6 C         142.4102  142.8914  164.3380 C.3     1  UNL1        0.0372
      7 N         140.4333  144.3529  160.0550 N.am    1  UNL1       -0.1773
      8 C         140.5014  144.1926  161.5448 C.2     1  UNL1        0.3266
      9 O         140.0438  145.3054  162.4406 O.2     1  UNL1       -0.2504
     10 N         141.0270  142.9195  162.1389 N.am    1  UNL1       -0.2600
     11 H         140.7336  143.6226  159.4671 H       1  UNL1        0.1841
     12 C         140.2082  145.9667  158.0313 C.3     1  UNL1        0.2056
     13 O         139.9077  145.6260  159.4609 O.3     1  UNL1       -0.2624
     14 C         141.4846  141.8068  161.2432 C.3     1  UNL1        0.1222
     15 C         140.4954  140.8033  160.7285 C.ar    1  UNL1        0.0047
     16 C         139.5775  139.9615  161.5645 C.ar    1  UNL1        0.0049
     17 C         138.7653  139.1034  160.6402 C.ar    1  UNL1        0.0352
     18 S         139.1814  139.4149  159.2331 S.2     1  UNL1       -0.0862
     19 C         140.2506  140.4655  159.2877 C.ar    1  UNL1        0.0328
     20 C         141.2994  142.2783  168.0984 C.3     1  UNL1        0.0592
     21 C         140.5341  143.2117  168.9888 C.3     1  UNL1        0.0174
     22 C         142.1328  141.1846  168.6977 C.3     1  UNL1        0.0372
     23 C         142.1111  139.8103  168.0970 C.3     1  UNL1        0.0911
     24 N         142.0862  139.6436  166.6065 N.am    1  UNL1       -0.3008
     25 C         143.0608  138.7193  165.9388 C.2     1  UNL1        0.2479
     26 O         144.0604  137.9618  166.7615 O.2     1  UNL1       -0.2701
     27 H         141.4301  140.1408  166.0665 H       1  UNL1        0.1497
     28 C         143.0358  138.5526  164.4483 C.ar    1  UNL1        0.0779
     29 C         144.0485  139.2599  163.5974 C.ar    1  UNL1       -0.0130
     30 C         145.0861  140.1341  164.2370 C.3     1  UNL1        0.0313
     31 C         144.0235  139.0932  162.1069 C.ar    1  UNL1        0.0256
     32 C         142.9858  138.2191  161.4673 C.ar    1  UNL1        0.1498
     33 N         141.9731  137.5116  162.3182 N.ar    1  UNL1       -0.2235
     34 C         141.9981  137.6784  163.8087 C.ar    1  UNL1        0.1431
     35 CL        140.9854  136.9710  164.6596 Cl      1  UNL1       -0.0612
     36 C         142.9609  138.0524  159.9768 C.1     1  UNL1        0.1198
     37 N         142.9359  137.8856  158.4863 N.1     1  UNL1       -0.1893
@<TRIPOS>BOND
     1    12    13    1
     2    13     7    1
     3     7     8   am
     4     8     9    2
     5     8    10   am
     6    10    14    1
     7    14    15    1
     8    15    16   ar
     9    16    17   ar
    10    17    18   ar
    11    18    19   ar
    12    10     1    1
    13     1     2    1
    14     2     3    1
    15     3     4    1
    16     4    20    1
    17    20    21    1
    18    20    22    1
    19    22    23    1
    20    23    24    1
    21    24    25   am
    22    25    26    2
    23    25    28    1
    24    28    29   ar
    25    29    30    1
    26    29    31   ar
    27    31    32   ar
    28    32    36    1
    29    36    37    3
    30    32    33   ar
    31    33    34   ar
    32    34    35    1
    33     4     5    1
    34     5     6    1
    35    19    15   ar
    36     6     1    1
    37    34    28   ar
    38     7    11    1
    39    24    27    1
@<TRIPOS>MOLECULE
*****
 37 39 0 0 0
SMALL
GASTEIGER

@<TRIPOS>ATOM
      1 C         140.5434  140.7696  166.5046 C.3     1  UNL1        0.0800
      2 C         141.8828  140.1091  166.3647 C.3     1  UNL1        0.0372
      3 C         143.0295  140.8602  165.7558 C.3     1  UNL1        0.0738
      4 N         142.8368  142.2718  165.2867 N.3     1  UNL1       -0.2738
      5 C         141.4974  142.9324  165.4265 C.3     1  UNL1        0.0738
      6 C         140.3507  142.1813  166.0355 C.3     1  UNL1        0.0372
      7 N         138.0051  139.3418  169.2006 N.am    1  UNL1       -0.1773
      8 C         139.1518  140.0928  168.5916 C.2     1  UNL1        0.3266
      9 O         140.0538  140.9182  169.4606 O.2     1  UNL1       -0.2504
     10 N         139.3966  140.0186  167.1136 N.am    1  UNL1       -0.2600
     11 H         137.4131  138.8001  168.6302 H       1  UNL1        0.1841
     12 C         136.4444  138.9704  171.2443 C.3     1  UNL1        0.2056
     13 O         137.7603  139.4161  170.6786 O.3     1  UNL1       -0.2624
     14 C         138.4946  139.1932  166.2445 C.3     1  UNL1        0.1222
     15 C         138.9868  138.6849  164.9219 C.ar    1  UNL1        0.0047
     16 C         138.4864  139.1088  163.5729 C.ar    1  UNL1        0.0049
     17 C         139.2561  138.3493  162.5332 C.ar    1  UNL1        0.0352
     18 S         140.2323  137.4560  163.2399 S.2     1  UNL1       -0.0862
     19 C         140.0659  137.6634  164.7161 C.ar    1  UNL1        0.0328
     20 C         143.9836  143.0229  164.6777 C.3     1  UNL1        0.0592
     21 C         145.2790  142.3190  164.4016 C.3     1  UNL1        0.0174
     22 C         143.8348  144.4779  164.3448 C.3     1  UNL1        0.0372
     23 C         143.7975  144.9194  162.9117 C.3     1  UNL1        0.0911
     24 N         143.0304  144.1201  161.9004 N.am    1  UNL1       -0.3008
     25 C         141.5329  144.1989  161.8615 C.2     1  UNL1        0.2479
     26 O         140.8026  145.0770  162.8338 O.2     1  UNL1       -0.2701
     27 H         143.5098  143.5437  161.2622 H       1  UNL1        0.1497
     28 C         140.7659  143.3995  160.8502 C.ar    1  UNL1        0.0779
     29 C         140.2318  144.0652  159.6167 C.ar    1  UNL1       -0.0130
     30 C         140.4648  145.5302  159.3945 C.3     1  UNL1        0.0313
     31 C         139.4648  143.2659  158.6054 C.ar    1  UNL1        0.0256
     32 C         139.2318  141.8009  158.8276 C.ar    1  UNL1        0.1498
     33 N         139.7659  141.1351  160.0612 N.ar    1  UNL1       -0.2235
     34 C         140.5330  141.9344  161.0725 C.ar    1  UNL1        0.1431
     35 CL        141.0670  141.2688  162.3060 Cl      1  UNL1       -0.0612
     36 C         138.4648  141.0015  157.8163 C.1     1  UNL1        0.1198
     37 N         137.6977  140.2022  156.8050 N.1     1  UNL1       -0.1893
@<TRIPOS>BOND
     1    12    13    1
     2    13     7    1
     3     7     8   am
     4     8     9    2
     5     8    10   am
     6    10    14    1
     7    14    15    1
     8    15    16   ar
     9    16    17   ar
    10    17    18   ar
    11    18    19   ar
    12    10     1    1
    13     1     2    1
    14     2     3    1
    15     3     4    1
    16     4    20    1
    17    20    21    1
    18    20    22    1
    19    22    23    1
    20    23    24    1
    21    24    25   am
    22    25    26    2
    23    25    28    1
    24    28    29   ar
    25    29    30    1
    26    29    31   ar
    27    31    32   ar
    28    32    36    1
    29    36    37    3
    30    32    33   ar
    31    33    34   ar
    32    34    35    1
    33     4     5    1
    34     5     6    1
    35    19    15   ar
    36     6     1    1
    37    34    28   ar
    38     7    11    1
    39    24    27    1
@<TRIPOS>MOLECULE
*****
 37 39 0 0 0
SMALL
GASTEIGER

@<TRIPOS>ATOM
      1 C         142.3966  142.9304  164.1903 C.3     1  UNL1        0.0800
      2 C         140.9665  143.1650  164.5769 C.3     1  UNL1        0.0372
      3 C         140.5252  142.9374  165.9924 C.3     1  UNL1        0.0738
      4 N         141.5141  142.4752  167.0211 N.3     1  UNL1       -0.2738
      5 C         142.9443  142.2406  166.6345 C.3     1  UNL1        0.0738
      6 C         143.3855  142.4682  165.2191 C.3     1  UNL1        0.0372
      7 N         142.5425  144.3629  160.4921 N.am    1  UNL1       -0.1773
      8 C         142.1013  144.1353  161.9075 C.2     1  UNL1        0.3266
      9 O         140.9233  144.8849  162.4557 O.2     1  UNL1       -0.2504
     10 N         142.8379  143.1580  162.7748 N.am    1  UNL1       -0.2600
     11 H         143.3156  143.8708  160.1323 H       1  UNL1        0.1841
     12 C         140.5481  144.9206  158.9232 C.3     1  UNL1        0.2056
     13 O         141.8058  145.3401  159.6248 O.3     1  UNL1       -0.2624
     14 C         144.0159  142.4083  162.2267 C.3     1  UNL1        0.1222
     15 C         143.8578  140.9844  161.7821 C.ar    1  UNL1        0.0047
     16 C         143.3518  140.5293  160.4453 C.ar    1  UNL1        0.0049
     17 C         143.3593  139.0293  160.4331 C.ar    1  UNL1        0.0352
     18 S         143.8700  138.5575  161.7623 S.2     1  UNL1       -0.0862
     19 C         144.1780  139.7658  162.5960 C.ar    1  UNL1        0.0328
     20 C         141.0728  142.2476  168.4366 C.3     1  UNL1        0.0592
     21 C         141.7167  143.0121  169.5551 C.3     1  UNL1        0.0174
     22 C         139.9876  141.2556  168.7336 C.3     1  UNL1        0.0372
     23 C         140.0009  139.9092  168.0724 C.3     1  UNL1        0.0911
     24 N         140.1362  139.8068  166.5821 N.am    1  UNL1       -0.3008
     25 C         139.1195  139.0417  165.7875 C.2     1  UNL1        0.2479
     26 O         137.9677  138.3792  166.4834 O.2     1  UNL1       -0.2701
     27 H         140.8922  140.2417  166.1254 H       1  UNL1        0.1497
     28 C         139.2548  138.9393  164.2971 C.ar    1  UNL1        0.0779
     29 C         140.1438  137.8920  163.6950 C.ar    1  UNL1       -0.0130
     30 C         140.8976  136.9471  164.5832 C.3     1  UNL1        0.0313
     31 C         140.2791  137.7896  162.2046 C.ar    1  UNL1        0.0256
     32 C         139.5254  138.7345  161.3164 C.ar    1  UNL1        0.1498
     33 N         138.6363  139.7819  161.9186 N.ar    1  UNL1       -0.2235
     34 C         138.5010  139.8843  163.4089 C.ar    1  UNL1        0.1431
     35 CL        137.6120  140.9317  164.0111 Cl      1  UNL1       -0.0612
     36 C         139.6606  138.6321  159.8260 C.1     1  UNL1        0.1198
     37 N         139.7959  138.5297  158.3357 N.1     1  UNL1       -0.1893
@<TRIPOS>BOND
     1    12    13    1
     2    13     7    1
     3     7     8   am
     4     8     9    2
     5     8    10   am
     6    10    14    1
     7    14    15    1
     8    15    16   ar
     9    16    17   ar
    10    17    18   ar
    11    18    19   ar
    12    10     1    1
    13     1     2    1
    14     2     3    1
    15     3     4    1
    16     4    20    1
    17    20    21    1
    18    20    22    1
    19    22    23    1
    20    23    24    1
    21    24    25   am
    22    25    26    2
    23    25    28    1
    24    28    29   ar
    25    29    30    1
    26    29    31   ar
    27    31    32   ar
    28    32    36    1
    29    36    37    3
    30    32    33   ar
    31    33    34   ar
    32    34    35    1
    33     4     5    1
    34     5     6    1
    35    19    15   ar
    36     6     1    1
    37    34    28   ar
    38     7    11    1
    39    24    27    1
@<TRIPOS>MOLECULE
*****
 37 39 0 0 0
SMALL
GASTEIGER

@<TRIPOS>ATOM
      1 C         139.6217  141.6101  160.7221 C.3     1  UNL1        0.0800
      2 C         139.4047  142.8499  161.5380 C.3     1  UNL1        0.0372
      3 C         140.5781  143.5741  162.1283 C.3     1  UNL1        0.0738
      4 N         141.9685  143.0586  161.9027 N.3     1  UNL1       -0.2738
      5 C         142.1855  141.8188  161.0868 C.3     1  UNL1        0.0738
      6 C         141.0121  141.0946  160.4965 C.3     1  UNL1        0.0372
      7 N         136.9532  140.3168  158.0845 N.am    1  UNL1       -0.1773
      8 C         138.1266  141.0411  158.6749 C.2     1  UNL1        0.3266
      9 O         138.9785  141.9206  157.8084 O.2     1  UNL1       -0.2504
     10 N         138.4482  140.8858  160.1318 N.am    1  UNL1       -0.2600
     11 H         136.3941  139.7396  158.6533 H       1  UNL1        0.1841
     12 C         135.2172  140.7204  156.1941 C.3     1  UNL1        0.2056
     13 O         136.6316  140.4721  156.6277 O.3     1  UNL1       -0.2624
     14 C         137.5964  140.0064  160.9983 C.3     1  UNL1        0.1222
     15 C         138.1654  139.4115  162.2522 C.ar    1  UNL1        0.0047
     16 C         138.1487  140.0415  163.6134 C.ar    1  UNL1        0.0049
     17 C         138.8241  139.1015  164.5676 C.ar    1  UNL1        0.0352
     18 S         139.2581  137.8906  163.7961 S.2     1  UNL1       -0.0862
     19 C         138.8511  138.0821  162.3651 C.ar    1  UNL1        0.0328
     20 C         143.1420  143.7829  162.4931 C.3     1  UNL1        0.0592
     21 C         142.9352  145.0781  163.2208 C.3     1  UNL1        0.0174
     22 C         144.5223  143.2119  162.3556 C.3     1  UNL1        0.0372
     23 C         145.0216  142.2087  163.3527 C.3     1  UNL1        0.0911
     24 N         144.2695  141.9831  164.6308 N.am    1  UNL1       -0.3008
     25 C         143.2825  140.8580  164.7316 C.2     1  UNL1        0.2479
     26 O         143.0477  139.9585  163.5545 O.2     1  UNL1       -0.2701
     27 H         144.4236  142.5735  165.4034 H       1  UNL1        0.1497
     28 C         142.5304  140.6325  166.0097 C.ar    1  UNL1        0.0779
     29 C         141.4726  141.6054  166.4392 C.ar    1  UNL1       -0.0130
     30 C         141.1670  142.8039  165.5905 C.3     1  UNL1        0.0313
     31 C         140.7205  141.3799  167.7172 C.ar    1  UNL1        0.0256
     32 C         141.0262  140.1815  168.5659 C.ar    1  UNL1        0.1498
     33 N         142.0840  139.2084  168.1364 N.ar    1  UNL1       -0.2235
     34 C         142.8361  139.4340  166.8584 C.ar    1  UNL1        0.1431
     35 CL        143.8939  138.4610  166.4289 Cl      1  UNL1       -0.0612
     36 C         140.2741  139.9559  169.8439 C.1     1  UNL1        0.1198
     37 N         139.5220  139.7304  171.1220 N.1     1  UNL1       -0.1893
@<TRIPOS>BOND
     1    12    13    1
     2    13     7    1
     3     7     8   am
     4     8     9    2
     5     8    10   am
     6    10    14    1
     7    14    15    1
     8    15    16   ar
     9    16    17   ar
    10    17    18   ar
    11    18    19   ar
    12    10     1    1
    13     1     2    1
    14     2     3    1
    15     3     4    1
    16     4    20    1
    17    20    21    1
    18    20    22    1
    19    22    23    1
    20    23    24    1
    21    24    25   am
    22    25    26    2
    23    25    28    1
    24    28    29   ar
    25    29    30    1
    26    29    31   ar
    27    31    32   ar
    28    32    36    1
    29    36    37    3
    30    32    33   ar
    31    33    34   ar
    32    34    35    1
    33     4     5    1
    34     5     6    1
    35    19    15   ar
    36     6     1    1
    37    34    28   ar
    38     7    11    1
    39    24    27    1
