@<TRIPOS>MOLECULE
*****
 27 30 0 0 0
SMALL
GASTEIGER

@<TRIPOS>ATOM
      1 C         138.8278  140.4553  165.4396 C.3     1  UNL1        0.1343
      2 C         138.5944  140.8761  164.0189 C.ar    1  UNL1        0.1615
      3 N         137.7330  140.3053  162.9317 N.ar    1  UNL1       -0.1316
      4 N         137.9058  141.1562  161.7086 N.ar    1  UNL1       -0.1268
      5 C         138.8741  142.2529  162.0399 C.ar    1  UNL1        0.1917
      6 N         139.2997  142.0798  163.4678 N.ar    1  UNL1       -0.2940
      7 C         140.2383  142.8627  164.3373 C.3     1  UNL1        0.1302
      8 C         140.4716  142.4419  165.7580 C.3     1  UNL1        0.1186
      9 N         139.7664  141.2383  166.3092 N.am    1  UNL1       -0.2688
     10 C         139.9998  140.8175  167.7300 C.2     1  UNL1        0.2494
     11 O         139.2946  139.6138  168.2812 O.2     1  UNL1       -0.2699
     12 C         140.9384  141.6004  168.5995 C.ar    1  UNL1        0.0537
     13 C         140.4439  142.8072  169.3405 C.ar    1  UNL1        0.0068
     14 C         141.3826  143.5901  170.2100 C.ar    1  UNL1        0.0298
     15 C         142.8156  143.1661  170.3386 C.ar    1  UNL1        0.1401
     16 F         143.7543  143.9489  171.2081 F       1  UNL1       -0.2042
     17 C         143.3101  141.9592  169.5976 C.ar    1  UNL1        0.0298
     18 C         142.3715  141.1763  168.7281 C.ar    1  UNL1        0.0068
     19 C         139.3357  143.3331  161.1070 C.ar    1  UNL1        0.1652
     20 N         139.5707  143.1841  159.6330 N.ar    1  UNL1       -0.2190
     21 C         140.0236  144.5108  159.0995 C.ar    1  UNL1        0.1481
     22 C         140.3706  144.8152  157.6722 C.3     1  UNL1        0.0744
     23 N         140.0685  145.4798  160.2436 N.ar    1  UNL1       -0.1929
     24 S         139.6434  144.7519  161.4843 S.2     1  UNL1        0.0369
     25 C         138.1226  139.2516  165.9909 C.3     1  UNL1        0.0276
     26 C         139.8459  137.6266  164.9237 C.3     1  UNL1        0.0001
     27 C         138.4857  137.8806  165.5026 C.3     1  UNL1        0.0022
@<TRIPOS>BOND
     1    26    27    1
     2    27    25    1
     3     1    25    1
     4     1     2    1
     5     2     3   ar
     6     3     4   ar
     7     4     5   ar
     8     5    19    1
     9    19    20   ar
    10    20    21   ar
    11    21    22    1
    12    21    23   ar
    13    23    24   ar
    14     5     6   ar
    15     6     7    1
    16     7     8    1
    17     8     9    1
    18     9    10   am
    19    10    11    2
    20    10    12    1
    21    12    13   ar
    22    13    14   ar
    23    14    15   ar
    24    15    16    1
    25    15    17   ar
    26    17    18   ar
    27     9     1    1
    28    18    12   ar
    29     6     2   ar
    30    24    19   ar
@<TRIPOS>MOLECULE
*****
 27 30 0 0 0
SMALL
GASTEIGER

@<TRIPOS>ATOM
      1 C         143.4266  140.9761  162.6638 C.3     1  UNL1        0.1343
      2 C         143.4128  141.8325  161.4324 C.ar    1  UNL1        0.1615
      3 N         144.5182  142.3978  160.5907 N.ar    1  UNL1       -0.1316
      4 N         143.8956  143.1844  159.4755 N.ar    1  UNL1       -0.1268
      5 C         142.4055  143.1052  159.6280 C.ar    1  UNL1        0.1917
      6 N         142.1071  142.2696  160.8375 N.ar    1  UNL1       -0.2940
      7 C         140.8152  141.8504  161.4739 C.3     1  UNL1        0.1302
      8 C         140.8289  140.9940  162.7053 C.3     1  UNL1        0.1186
      9 N         142.1346  140.5568  163.3003 N.am    1  UNL1       -0.2688
     10 C         142.1483  139.7004  164.5317 C.2     1  UNL1        0.2494
     11 O         143.4540  139.2632  165.1267 O.2     1  UNL1       -0.2699
     12 C         140.8564  139.2811  165.1682 C.ar    1  UNL1        0.0537
     13 C         140.2938  140.0699  166.3133 C.ar    1  UNL1        0.0068
     14 C         139.0018  139.6506  166.9498 C.ar    1  UNL1        0.0298
     15 C         138.2724  138.4427  166.4411 C.ar    1  UNL1        0.1401
     16 F         136.9805  138.0233  167.0774 F       1  UNL1       -0.2042
     17 C         138.8351  137.6539  165.2958 C.ar    1  UNL1        0.0298
     18 C         140.1270  138.0731  164.6594 C.ar    1  UNL1        0.0068
     19 C         141.3918  143.7486  158.7289 C.ar    1  UNL1        0.1652
     20 N         141.3262  145.2044  158.3736 N.ar    1  UNL1       -0.2190
     21 C         140.1595  145.4046  157.4524 C.ar    1  UNL1        0.1481
     22 C         139.7247  146.7081  156.8508 C.3     1  UNL1        0.0744
     23 N         139.5040  144.0725  157.2382 N.ar    1  UNL1       -0.1929
     24 S         140.2656  143.0491  158.0272 S.2     1  UNL1        0.0369
     25 C         144.7323  140.5388  163.2589 C.3     1  UNL1        0.0276
     26 C         145.0532  142.7284  164.6199 C.3     1  UNL1        0.0001
     27 C         145.6369  141.5461  163.9048 C.3     1  UNL1        0.0022
@<TRIPOS>BOND
     1    26    27    1
     2    27    25    1
     3     1    25    1
     4     1     2    1
     5     2     3   ar
     6     3     4   ar
     7     4     5   ar
     8     5    19    1
     9    19    20   ar
    10    20    21   ar
    11    21    22    1
    12    21    23   ar
    13    23    24   ar
    14     5     6   ar
    15     6     7    1
    16     7     8    1
    17     8     9    1
    18     9    10   am
    19    10    11    2
    20    10    12    1
    21    12    13   ar
    22    13    14   ar
    23    14    15   ar
    24    15    16    1
    25    15    17   ar
    26    17    18   ar
    27     9     1    1
    28    18    12   ar
    29     6     2   ar
    30    24    19   ar
@<TRIPOS>MOLECULE
*****
 27 30 0 0 0
SMALL
GASTEIGER

@<TRIPOS>ATOM
      1 C         142.5056  139.6532  164.6878 C.3     1  UNL1        0.1343
      2 C         142.1488  139.7855  163.2369 C.ar    1  UNL1        0.1615
      3 N         142.7224  139.1580  162.0010 N.ar    1  UNL1       -0.1316
      4 N         141.9519  139.6707  160.8206 N.ar    1  UNL1       -0.1268
      5 C         140.9021  140.6149  161.3269 C.ar    1  UNL1        0.1917
      6 N         141.0238  140.6859  162.8202 N.ar    1  UNL1       -0.2940
      7 C         140.2556  141.4541  163.8545 C.3     1  UNL1        0.1302
      8 C         140.6124  141.3218  165.3054 C.3     1  UNL1        0.1186
      9 N         141.7374  140.4214  165.7221 N.am    1  UNL1       -0.2688
     10 C         142.0942  140.2892  167.1731 C.2     1  UNL1        0.2494
     11 O         143.2192  139.3888  167.5897 O.2     1  UNL1       -0.2699
     12 C         141.3260  141.0574  168.2073 C.ar    1  UNL1        0.0537
     13 C         140.1596  140.4197  168.9023 C.ar    1  UNL1        0.0068
     14 C         139.3914  141.1880  169.9366 C.ar    1  UNL1        0.0298
     15 C         139.7896  142.5937  170.2759 C.ar    1  UNL1        0.1401
     16 F         139.0215  143.3620  171.3102 F       1  UNL1       -0.2042
     17 C         140.9560  143.2314  169.5809 C.ar    1  UNL1        0.0298
     18 C         141.7242  142.4632  168.5466 C.ar    1  UNL1        0.0068
     19 C         139.9056  141.3578  160.4872 C.ar    1  UNL1        0.1652
     20 N         139.3221  140.8869  159.1880 N.ar    1  UNL1       -0.2190
     21 C         138.3735  141.9401  158.6972 C.ar    1  UNL1        0.1481
     22 C         137.5689  141.8818  157.4326 C.3     1  UNL1        0.0744
     23 N         138.3706  143.0619  159.6930 N.ar    1  UNL1       -0.1929
     24 S         139.3175  142.7020  160.7992 S.2     1  UNL1        0.0369
     25 C         143.6307  138.7528  165.1045 C.3     1  UNL1        0.0276
     26 C         145.3885  140.4341  164.1920 C.3     1  UNL1        0.0001
     27 C         145.0347  139.0586  164.6744 C.3     1  UNL1        0.0022
@<TRIPOS>BOND
     1    26    27    1
     2    27    25    1
     3     1    25    1
     4     1     2    1
     5     2     3   ar
     6     3     4   ar
     7     4     5   ar
     8     5    19    1
     9    19    20   ar
    10    20    21   ar
    11    21    22    1
    12    21    23   ar
    13    23    24   ar
    14     5     6   ar
    15     6     7    1
    16     7     8    1
    17     8     9    1
    18     9    10   am
    19    10    11    2
    20    10    12    1
    21    12    13   ar
    22    13    14   ar
    23    14    15   ar
    24    15    16    1
    25    15    17   ar
    26    17    18   ar
    27     9     1    1
    28    18    12   ar
    29     6     2   ar
    30    24    19   ar
@<TRIPOS>MOLECULE
*****
 27 30 0 0 0
SMALL
GASTEIGER

@<TRIPOS>ATOM
      1 C         142.5751  140.4994  164.3308 C.3     1  UNL1        0.1343
      2 C         142.4671  141.0789  162.9515 C.ar    1  UNL1        0.1615
      3 N         143.0443  140.6507  161.6349 N.ar    1  UNL1       -0.1316
      4 N         142.5901  141.6267  160.5903 N.ar    1  UNL1       -0.1268
      5 C         141.7321  142.6581  161.2613 C.ar    1  UNL1        0.1917
      6 N         141.6561  142.3195  162.7206 N.ar    1  UNL1       -0.2940
      7 C         140.9532  142.9806  163.8690 C.3     1  UNL1        0.1302
      8 C         141.0613  142.4011  165.2483 C.3     1  UNL1        0.1186
      9 N         141.8722  141.1606  165.4792 N.am    1  UNL1       -0.2688
     10 C         141.9802  140.5811  166.8586 C.2     1  UNL1        0.2494
     11 O         142.7912  139.3405  167.0895 O.2     1  UNL1       -0.2699
     12 C         141.2773  141.2422  168.0070 C.ar    1  UNL1        0.0537
     13 C         140.0732  140.5936  168.6229 C.ar    1  UNL1        0.0068
     14 C         139.3703  141.2548  169.7714 C.ar    1  UNL1        0.0298
     15 C         139.8715  142.5644  170.3039 C.ar    1  UNL1        0.1401
     16 F         139.1687  143.2256  171.4523 F       1  UNL1       -0.2042
     17 C         141.0758  143.2129  169.6879 C.ar    1  UNL1        0.0298
     18 C         141.7787  142.5519  168.5395 C.ar    1  UNL1        0.0068
     19 C         141.0670  143.8233  160.5907 C.ar    1  UNL1        0.1652
     20 N         141.1642  144.1767  159.1361 N.ar    1  UNL1       -0.2190
     21 C         140.3452  145.4116  158.9034 C.ar    1  UNL1        0.1481
     22 C         140.1618  146.1135  157.5905 C.3     1  UNL1        0.0744
     23 N         139.7418  145.8215  160.2141 N.ar    1  UNL1       -0.1929
     24 S         140.1879  144.8399  161.2569 S.2     1  UNL1        0.0369
     25 C         143.3861  139.2588  164.5618 C.3     1  UNL1        0.0276
     26 C         145.5817  140.5987  164.1961 C.3     1  UNL1        0.0001
     27 C         144.8730  139.2877  164.3667 C.3     1  UNL1        0.0022
@<TRIPOS>BOND
     1    26    27    1
     2    27    25    1
     3     1    25    1
     4     1     2    1
     5     2     3   ar
     6     3     4   ar
     7     4     5   ar
     8     5    19    1
     9    19    20   ar
    10    20    21   ar
    11    21    22    1
    12    21    23   ar
    13    23    24   ar
    14     5     6   ar
    15     6     7    1
    16     7     8    1
    17     8     9    1
    18     9    10   am
    19    10    11    2
    20    10    12    1
    21    12    13   ar
    22    13    14   ar
    23    14    15   ar
    24    15    16    1
    25    15    17   ar
    26    17    18   ar
    27     9     1    1
    28    18    12   ar
    29     6     2   ar
    30    24    19   ar
@<TRIPOS>MOLECULE
*****
 27 30 0 0 0
SMALL
GASTEIGER

@<TRIPOS>ATOM
      1 C         140.3007  143.1368  164.3747 C.3     1  UNL1        0.1343
      2 C         140.5233  142.8166  162.9263 C.ar    1  UNL1        0.1615
      3 N         139.9960  143.4400  161.6680 N.ar    1  UNL1       -0.1316
      4 N         140.5695  142.6890  160.5031 N.ar    1  UNL1       -0.1268
      5 C         141.4512  141.6014  161.0413 C.ar    1  UNL1        0.1917
      6 N         141.4226  141.6802  162.5390 N.ar    1  UNL1       -0.2940
      7 C         142.0994  140.8641  163.6001 C.3     1  UNL1        0.1302
      8 C         141.8768  141.1843  165.0485 C.3     1  UNL1        0.1186
      9 N         140.9775  142.3206  165.4358 N.am    1  UNL1       -0.2688
     10 C         140.7549  142.6408  166.8843 C.2     1  UNL1        0.2494
     11 O         139.8556  143.7771  167.2716 O.2     1  UNL1       -0.2699
     12 C         141.4316  141.8247  167.9454 C.ar    1  UNL1        0.0537
     13 C         140.8344  140.5202  168.3831 C.ar    1  UNL1        0.0068
     14 C         141.5112  139.7041  169.4443 C.ar    1  UNL1        0.0298
     15 C         142.7851  140.1924  170.0676 C.ar    1  UNL1        0.1401
     16 F         143.4619  139.3764  171.1288 F       1  UNL1       -0.2042
     17 C         143.3823  141.4970  169.6299 C.ar    1  UNL1        0.0298
     18 C         142.7056  142.3131  168.5688 C.ar    1  UNL1        0.0068
     19 C         142.2254  140.6092  160.2252 C.ar    1  UNL1        0.1652
     20 N         141.6625  139.3968  159.5447 N.ar    1  UNL1       -0.2190
     21 C         142.7878  138.6935  158.8453 C.ar    1  UNL1        0.1481
     22 C         142.6745  137.4336  158.0391 C.3     1  UNL1        0.0744
     23 N         144.0461  139.4713  159.0935 N.ar    1  UNL1       -0.1929
     24 S         143.6985  140.6553  159.9463 S.2     1  UNL1        0.0369
     25 C         139.4014  144.2731  164.7621 C.3     1  UNL1        0.0276
     26 C         137.3031  142.8102  164.3071 C.3     1  UNL1        0.0001
     27 C         137.9176  144.1513  164.5788 C.3     1  UNL1        0.0022
@<TRIPOS>BOND
     1    26    27    1
     2    27    25    1
     3     1    25    1
     4     1     2    1
     5     2     3   ar
     6     3     4   ar
     7     4     5   ar
     8     5    19    1
     9    19    20   ar
    10    20    21   ar
    11    21    22    1
    12    21    23   ar
    13    23    24   ar
    14     5     6   ar
    15     6     7    1
    16     7     8    1
    17     8     9    1
    18     9    10   am
    19    10    11    2
    20    10    12    1
    21    12    13   ar
    22    13    14   ar
    23    14    15   ar
    24    15    16    1
    25    15    17   ar
    26    17    18   ar
    27     9     1    1
    28    18    12   ar
    29     6     2   ar
    30    24    19   ar
@<TRIPOS>MOLECULE
*****
 27 30 0 0 0
SMALL
GASTEIGER

@<TRIPOS>ATOM
      1 C         141.1463  143.7622  162.3499 C.3     1  UNL1        0.1343
      2 C         140.9182  144.2574  160.9525 C.ar    1  UNL1        0.1615
      3 N         141.4225  145.4660  160.2211 N.ar    1  UNL1       -0.1316
      4 N         140.8545  145.4383  158.8331 N.ar    1  UNL1       -0.1268
      5 C         139.9992  144.2126  158.7066 C.ar    1  UNL1        0.1917
      6 N         140.0385  143.4827  160.0165 N.ar    1  UNL1       -0.2940
      7 C         139.3869  142.2128  160.4779 C.3     1  UNL1        0.1302
      8 C         139.6151  141.7176  161.8753 C.3     1  UNL1        0.1186
      9 N         140.4947  142.4922  162.8112 N.am    1  UNL1       -0.2688
     10 C         140.7229  141.9970  164.2087 C.2     1  UNL1        0.2494
     11 O         141.6026  142.7716  165.1447 O.2     1  UNL1       -0.2699
     12 C         140.0713  140.7271  164.6701 C.ar    1  UNL1        0.0537
     13 C         138.7516  140.7768  165.3812 C.ar    1  UNL1        0.0068
     14 C         138.1000  139.5068  165.8426 C.ar    1  UNL1        0.0298
     15 C         138.7682  138.1874  165.5929 C.ar    1  UNL1        0.1401
     16 F         138.1168  136.9174  166.0542 F       1  UNL1       -0.2042
     17 C         140.0881  138.1377  164.8817 C.ar    1  UNL1        0.0298
     18 C         140.7396  139.4076  164.4203 C.ar    1  UNL1        0.0068
     19 C         139.2381  143.7908  157.4848 C.ar    1  UNL1        0.1652
     20 N         138.0431  142.8844  157.4596 N.ar    1  UNL1       -0.2190
     21 C         137.6049  142.7348  156.0328 C.ar    1  UNL1        0.1481
     22 C         136.4460  141.9152  155.5478 C.3     1  UNL1        0.0744
     23 N         138.5290  143.5487  155.1763 N.ar    1  UNL1       -0.1929
     24 S         139.5383  144.2013  156.0737 S.2     1  UNL1        0.0369
     25 C         142.0260  144.5368  163.2859 C.3     1  UNL1        0.0276
     26 C         144.3020  143.5793  162.4780 C.3     1  UNL1        0.0001
     27 C         143.4767  144.7353  162.9602 C.3     1  UNL1        0.0022
@<TRIPOS>BOND
     1    26    27    1
     2    27    25    1
     3     1    25    1
     4     1     2    1
     5     2     3   ar
     6     3     4   ar
     7     4     5   ar
     8     5    19    1
     9    19    20   ar
    10    20    21   ar
    11    21    22    1
    12    21    23   ar
    13    23    24   ar
    14     5     6   ar
    15     6     7    1
    16     7     8    1
    17     8     9    1
    18     9    10   am
    19    10    11    2
    20    10    12    1
    21    12    13   ar
    22    13    14   ar
    23    14    15   ar
    24    15    16    1
    25    15    17   ar
    26    17    18   ar
    27     9     1    1
    28    18    12   ar
    29     6     2   ar
    30    24    19   ar
@<TRIPOS>MOLECULE
*****
 27 30 0 0 0
SMALL
GASTEIGER

@<TRIPOS>ATOM
      1 C         139.0759  142.9470  162.6233 C.3     1  UNL1        0.1343
      2 C         139.0001  142.4810  161.1995 C.ar    1  UNL1        0.1615
      3 N         138.4183  143.1086  159.9677 N.ar    1  UNL1       -0.1316
      4 N         138.6397  142.1687  158.8198 N.ar    1  UNL1       -0.1268
      5 C         139.3583  140.9602  159.3423 C.ar    1  UNL1        0.1917
      6 N         139.5811  141.1531  160.8131 N.ar    1  UNL1       -0.2940
      7 C         140.2378  140.2914  161.8503 C.3     1  UNL1        0.1302
      8 C         140.3136  140.7574  163.2741 C.3     1  UNL1        0.1186
      9 N         139.7327  142.0851  163.6605 N.am    1  UNL1       -0.2688
     10 C         139.8085  142.5512  165.0844 C.2     1  UNL1        0.2494
     11 O         139.2275  143.8790  165.4708 O.2     1  UNL1       -0.2699
     12 C         140.4653  141.6894  166.1217 C.ar    1  UNL1        0.0537
     13 C         139.6475  140.7100  166.9102 C.ar    1  UNL1        0.0068
     14 C         140.3043  139.8481  167.9476 C.ar    1  UNL1        0.0298
     15 C         141.7788  139.9658  168.1962 C.ar    1  UNL1        0.1401
     16 F         142.4357  139.1041  169.2334 F       1  UNL1       -0.2042
     17 C         142.5966  140.9453  167.4075 C.ar    1  UNL1        0.0298
     18 C         141.9399  141.8071  166.3703 C.ar    1  UNL1        0.0068
     19 C         139.7801  139.7680  158.5356 C.ar    1  UNL1        0.1652
     20 N         138.9711  139.0960  157.4661 N.ar    1  UNL1       -0.2190
     21 C         139.7760  137.9512  156.9264 C.ar    1  UNL1        0.1481
     22 C         139.3493  137.0076  155.8412 C.3     1  UNL1        0.0744
     23 N         141.0826  137.9155  157.6623 N.ar    1  UNL1       -0.1929
     24 S         141.0851  139.0383  158.6569 S.2     1  UNL1        0.0369
     25 C         138.4949  144.2749  163.0098 C.3     1  UNL1        0.0276
     26 C         140.6329  145.6364  162.4399 C.3     1  UNL1        0.0001
     27 C         139.1387  145.5427  162.5324 C.3     1  UNL1        0.0022
@<TRIPOS>BOND
     1    26    27    1
     2    27    25    1
     3     1    25    1
     4     1     2    1
     5     2     3   ar
     6     3     4   ar
     7     4     5   ar
     8     5    19    1
     9    19    20   ar
    10    20    21   ar
    11    21    22    1
    12    21    23   ar
    13    23    24   ar
    14     5     6   ar
    15     6     7    1
    16     7     8    1
    17     8     9    1
    18     9    10   am
    19    10    11    2
    20    10    12    1
    21    12    13   ar
    22    13    14   ar
    23    14    15   ar
    24    15    16    1
    25    15    17   ar
    26    17    18   ar
    27     9     1    1
    28    18    12   ar
    29     6     2   ar
    30    24    19   ar
@<TRIPOS>MOLECULE
*****
 27 30 0 0 0
SMALL
GASTEIGER

@<TRIPOS>ATOM
      1 C         142.8249  141.1218  161.0040 C.3     1  UNL1        0.1343
      2 C         143.1559  140.4234  159.7185 C.ar    1  UNL1        0.1615
      3 N         144.1129  140.7568  158.6127 N.ar    1  UNL1       -0.1316
      4 N         144.0127  139.6805  157.5728 N.ar    1  UNL1       -0.1268
      5 C         142.9938  138.6818  158.0359 C.ar    1  UNL1        0.1917
      6 N         142.4642  139.1410  159.3621 N.ar    1  UNL1       -0.2940
      7 C         141.4416  138.5570  160.2911 C.3     1  UNL1        0.1302
      8 C         141.1106  139.2555  161.5766 C.3     1  UNL1        0.1186
      9 N         141.8022  140.5378  161.9331 N.am    1  UNL1       -0.2688
     10 C         141.4712  141.2363  163.2187 C.2     1  UNL1        0.2494
     11 O         142.1628  142.5187  163.5752 O.2     1  UNL1       -0.2699
     12 C         140.4485  140.6524  164.1478 C.ar    1  UNL1        0.0537
     13 C         138.9911  140.9328  163.9306 C.ar    1  UNL1        0.0068
     14 C         137.9684  140.3488  164.8598 C.ar    1  UNL1        0.0298
     15 C         138.4032  139.4845  166.0059 C.ar    1  UNL1        0.1401
     16 F         137.3806  138.9005  166.9350 F       1  UNL1       -0.2042
     17 C         139.8607  139.2040  166.2230 C.ar    1  UNL1        0.0298
     18 C         140.8834  139.7879  165.2940 C.ar    1  UNL1        0.0068
     19 C         142.5775  137.4418  157.3017 C.ar    1  UNL1        0.1652
     20 N         143.2842  136.1190  157.3338 N.ar    1  UNL1       -0.2190
     21 C         142.5249  135.1666  156.4584 C.ar    1  UNL1        0.1481
     22 C         142.8793  133.7319  156.2013 C.3     1  UNL1        0.0744
     23 N         141.3490  135.9006  155.8854 N.ar    1  UNL1       -0.1929
     24 S         141.3815  137.3068  156.4065 S.2     1  UNL1        0.0369
     25 C         143.5166  142.4043  161.3606 C.3     1  UNL1        0.0276
     26 C         145.4150  141.5661  162.9235 C.3     1  UNL1        0.0001
     27 C         144.9636  142.3914  161.7551 C.3     1  UNL1        0.0022
@<TRIPOS>BOND
     1    26    27    1
     2    27    25    1
     3     1    25    1
     4     1     2    1
     5     2     3   ar
     6     3     4   ar
     7     4     5   ar
     8     5    19    1
     9    19    20   ar
    10    20    21   ar
    11    21    22    1
    12    21    23   ar
    13    23    24   ar
    14     5     6   ar
    15     6     7    1
    16     7     8    1
    17     8     9    1
    18     9    10   am
    19    10    11    2
    20    10    12    1
    21    12    13   ar
    22    13    14   ar
    23    14    15   ar
    24    15    16    1
    25    15    17   ar
    26    17    18   ar
    27     9     1    1
    28    18    12   ar
    29     6     2   ar
    30    24    19   ar
@<TRIPOS>MOLECULE
*****
 27 30 0 0 0
SMALL
GASTEIGER

@<TRIPOS>ATOM
      1 C         140.7743  139.0355  161.9925 C.3     1  UNL1        0.1343
      2 C         141.6370  138.9566  160.7680 C.ar    1  UNL1        0.1615
      3 N         142.1337  137.7920  159.9636 N.ar    1  UNL1       -0.1316
      4 N         142.9660  138.3283  158.8368 N.ar    1  UNL1       -0.1268
      5 C         142.9836  139.8243  158.9447 C.ar    1  UNL1        0.1917
      6 N         142.1623  140.2126  160.1383 N.ar    1  UNL1       -0.2940
      7 C         141.8248  141.5476  160.7331 C.3     1  UNL1        0.1302
      8 C         140.9621  141.6266  161.9576 C.3     1  UNL1        0.1186
      9 N         140.4368  140.3707  162.5873 N.am    1  UNL1       -0.2688
     10 C         139.5740  140.4496  163.8119 C.2     1  UNL1        0.2494
     11 O         139.0488  139.1936  164.4415 O.2     1  UNL1       -0.2699
     12 C         139.2365  141.7847  164.4067 C.ar    1  UNL1        0.0537
     13 C         138.0088  142.5183  163.9547 C.ar    1  UNL1        0.0068
     14 C         137.6713  143.8534  164.5496 C.ar    1  UNL1        0.0298
     15 C         138.5616  144.4547  165.5963 C.ar    1  UNL1        0.1401
     16 F         138.2242  145.7897  166.1912 F       1  UNL1       -0.2042
     17 C         139.7894  143.7210  166.0483 C.ar    1  UNL1        0.0298
     18 C         140.1269  142.3860  165.4535 C.ar    1  UNL1        0.0068
     19 C         143.6973  140.7665  158.0212 C.ar    1  UNL1        0.1652
     20 N         145.1310  140.6638  157.5923 N.ar    1  UNL1       -0.2190
     21 C         145.4223  141.8108  156.6705 C.ar    1  UNL1        0.1481
     22 C         146.7366  142.0960  156.0062 C.3     1  UNL1        0.0744
     23 N         144.1687  142.6223  156.5297 N.ar    1  UNL1       -0.1929
     24 S         143.1026  141.9769  157.3645 S.2     1  UNL1        0.0369
     25 C         140.2490  137.7795  162.6222 C.3     1  UNL1        0.0276
     26 C         141.9939  137.6650  164.5436 C.3     1  UNL1        0.0001
     27 C         141.1265  136.9739  163.5337 C.3     1  UNL1        0.0022
@<TRIPOS>BOND
     1    26    27    1
     2    27    25    1
     3     1    25    1
     4     1     2    1
     5     2     3   ar
     6     3     4   ar
     7     4     5   ar
     8     5    19    1
     9    19    20   ar
    10    20    21   ar
    11    21    22    1
    12    21    23   ar
    13    23    24   ar
    14     5     6   ar
    15     6     7    1
    16     7     8    1
    17     8     9    1
    18     9    10   am
    19    10    11    2
    20    10    12    1
    21    12    13   ar
    22    13    14   ar
    23    14    15   ar
    24    15    16    1
    25    15    17   ar
    26    17    18   ar
    27     9     1    1
    28    18    12   ar
    29     6     2   ar
    30    24    19   ar
