@<TRIPOS>MOLECULE
*****
 45 50 0 0 0
SMALL
GASTEIGER

@<TRIPOS>ATOM
      1 N         139.4038  142.8913  157.2129 N.am    1  UNL1       -0.1907
      2 C         139.8783  141.7223  156.4015 C.2     1  UNL1        0.3219
      3 O         140.3562  141.7713  154.9805 O.2     1  UNL1       -0.2512
      4 N         139.7911  140.4958  157.2605 N.am    1  UNL1       -0.2222
      5 C         139.2626  140.9066  158.6029 C.3     1  UNL1        0.1391
      6 C         138.7288  141.4640  159.8891 C.3     1  UNL1        0.0449
      7 C         138.4829  140.5541  161.0560 C.3     1  UNL1        0.0746
      8 N         138.7708  139.0869  160.9367 N.3     1  UNL1       -0.2676
      9 C         139.3047  138.5295  159.6505 C.3     1  UNL1        0.0746
     10 C         139.5506  139.4394  158.4837 C.3     1  UNL1        0.0449
     11 C         139.0233  142.3871  158.5735 C.2     1  UNL1        0.2529
     12 O         138.4960  143.2177  159.7058 O.2     1  UNL1       -0.2724
     13 C         139.1639  147.1608  155.8117 C.ar    1  UNL1        0.0001
     14 C         138.3534  146.1002  155.1274 C.ar    1  UNL1        0.0013
     15 C         138.4334  144.6770  155.5945 C.ar    1  UNL1        0.0154
     16 C         139.3238  144.3145  156.7458 C.ar    1  UNL1        0.0622
     17 C         140.1343  145.3750  157.4301 C.ar    1  UNL1        0.0154
     18 C         140.0543  146.7982  156.9630 C.ar    1  UNL1        0.0013
     19 C         138.9240  151.4303  154.4104 C.ar    1  UNL1        0.0534
     20 C         138.3872  151.0523  155.7591 C.ar    1  UNL1        0.0045
     21 C         138.4672  149.6291  156.2262 C.ar    1  UNL1        0.0001
     22 C         139.0840  148.5839  155.3446 C.ar    1  UNL1        0.0000
     23 C         139.6208  148.9619  153.9959 C.ar    1  UNL1        0.0001
     24 C         139.5408  150.3852  153.5288 C.ar    1  UNL1        0.0045
     25 C         137.6043  154.7270  152.6382 C.3     1  UNL1        0.1109
     26 N         137.6843  153.3038  153.1053 N.am    1  UNL1       -0.2992
     27 C         138.8441  152.8535  153.9433 C.2     1  UNL1        0.2459
     28 O         139.9239  153.8264  154.3142 O.2     1  UNL1       -0.2701
     29 H         136.9756  152.6653  152.8619 H       1  UNL1        0.1498
     30 C         140.1664  139.1029  156.8494 C.ar    1  UNL1        0.1453
     31 C         141.5772  138.6240  157.0232 C.ar    1  UNL1        0.0924
     32 C         141.9524  137.2311  156.6121 C.ar    1  UNL1        0.2293
     33 N         140.9168  136.3170  156.0272 N.ar    1  UNL1       -0.1892
     34 C         139.5060  136.7959  155.8534 C.ar    1  UNL1        0.2027
     35 N         139.1308  138.1888  156.2645 N.ar    1  UNL1       -0.2084
     36 O         143.3632  136.7522  156.7858 O.3     1  UNL1       -0.4560
     37 C         144.1326  136.2405  155.6041 C.3     1  UNL1        0.2542
     38 C         138.5249  138.1770  162.1036 C.3     1  UNL1        0.1183
     39 C         138.9688  138.5829  163.4777 C.ar    1  UNL1        0.0712
     40 N         138.0882  139.4541  164.3236 N.ar    1  UNL1       -0.2471
     41 C         138.5321  139.8599  165.6978 C.ar    1  UNL1        0.0985
     42 C         139.8567  139.3947  166.2260 C.ar    1  UNL1        0.0203
     43 C         140.7373  138.5235  165.3801 C.ar    1  UNL1       -0.0015
     44 C         140.2934  138.1176  164.0060 C.ar    1  UNL1       -0.0069
     45 C         141.1741  137.2465  163.1601 C.3     1  UNL1        0.0323
@<TRIPOS>BOND
     1    25    26    1
     2    26    27   am
     3    27    28    2
     4    27    19    1
     5    19    20   ar
     6    20    21   ar
     7    21    22   ar
     8    22    13    1
     9    13    14   ar
    10    14    15   ar
    11    15    16   ar
    12    16     1    1
    13     1     2   am
    14     2     3    2
    15     2     4   am
    16     4    30    1
    17    30    31   ar
    18    31    32   ar
    19    32    36    1
    20    36    37    1
    21    32    33   ar
    22    33    34   ar
    23    34    35   ar
    24     4     5    1
    25     5     6    1
    26     6     7    1
    27     7     8    1
    28     8    38    1
    29    38    39    1
    30    39    40   ar
    31    40    41   ar
    32    41    42   ar
    33    42    43   ar
    34    43    44   ar
    35    44    45    1
    36     8     9    1
    37     9    10    1
    38     5    11    1
    39    11    12    2
    40    16    17   ar
    41    17    18   ar
    42    22    23   ar
    43    23    24   ar
    44    24    19   ar
    45    18    13   ar
    46    11     1   am
    47    35    30   ar
    48    10     5    1
    49    44    39   ar
    50    26    29    1
@<TRIPOS>MOLECULE
*****
 45 50 0 0 0
SMALL
GASTEIGER

@<TRIPOS>ATOM
      1 N         141.2470  139.3998  156.6677 N.am    1  UNL1       -0.1907
      2 C         140.4465  140.2909  155.7648 C.2     1  UNL1        0.3219
      3 O         139.9756  139.9507  154.3819 O.2     1  UNL1       -0.2512
      4 N         140.1995  141.5818  156.4876 N.am    1  UNL1       -0.2222
      5 C         140.8474  141.4887  157.8373 C.3     1  UNL1        0.1391
      6 C         141.5409  141.2511  159.1459 C.3     1  UNL1        0.0449
      7 C         141.5413  142.3189  160.1993 C.3     1  UNL1        0.0746
      8 N         140.8483  143.6245  159.9440 N.3     1  UNL1       -0.2676
      9 C         140.1548  143.8622  158.6354 C.3     1  UNL1        0.0746
     10 C         140.1544  142.7943  157.5820 C.3     1  UNL1        0.0449
     11 C         141.4948  140.1402  157.9486 C.2     1  UNL1        0.2529
     12 O         142.2562  139.6228  159.1329 O.2     1  UNL1       -0.2724
     13 C         142.6575  135.2369  155.7034 C.ar    1  UNL1        0.0001
     14 C         143.6525  136.3042  156.0513 C.ar    1  UNL1        0.0013
     15 C         143.1823  137.6918  156.3727 C.ar    1  UNL1        0.0154
     16 C         141.7172  138.0122  156.3463 C.ar    1  UNL1        0.0622
     17 C         140.7223  136.9450  155.9984 C.ar    1  UNL1        0.0154
     18 C         141.1924  135.5574  155.6769 C.ar    1  UNL1        0.0013
     19 C         144.0681  131.0739  154.7390 C.ar    1  UNL1        0.0534
     20 C         143.0702  131.7529  153.8483 C.ar    1  UNL1        0.0045
     21 C         142.6001  133.1406  154.1697 C.ar    1  UNL1        0.0001
     22 C         143.1277  133.8493  155.3819 C.ar    1  UNL1        0.0000
     23 C         144.1254  133.1703  156.2727 C.ar    1  UNL1        0.0001
     24 C         144.5957  131.7826  155.9512 C.ar    1  UNL1        0.0045
     25 C         145.6961  128.0230  152.7918 C.3     1  UNL1        0.1109
     26 N         145.2259  129.4107  153.1133 N.am    1  UNL1       -0.2992
     27 C         144.5382  129.6863  154.4176 C.2     1  UNL1        0.2459
     28 O         144.3207  128.5742  155.4004 O.2     1  UNL1       -0.2701
     29 H         145.3687  130.1406  152.4682 H       1  UNL1        0.1498
     30 C         139.4384  142.7592  155.9544 C.ar    1  UNL1        0.1453
     31 C         140.1708  143.8884  155.2922 C.ar    1  UNL1        0.0924
     32 C         139.4095  145.0658  154.7591 C.ar    1  UNL1        0.2293
     33 N         137.9158  145.1141  154.8880 N.ar    1  UNL1       -0.1892
     34 C         137.1834  143.9848  155.5502 C.ar    1  UNL1        0.2027
     35 N         137.9447  142.8075  156.0833 N.ar    1  UNL1       -0.2084
     36 O         140.1419  146.1950  154.0969 O.3     1  UNL1       -0.4560
     37 C         139.8661  147.6112  154.5076 C.3     1  UNL1        0.2542
     38 C         140.8487  144.6924  160.9974 C.3     1  UNL1        0.1183
     39 C         139.9416  144.5737  162.1861 C.ar    1  UNL1        0.0712
     40 N         138.4932  144.2348  161.9934 N.ar    1  UNL1       -0.2471
     41 C         137.5860  144.1161  163.1821 C.ar    1  UNL1        0.0985
     42 C         138.1274  144.3363  164.5636 C.ar    1  UNL1        0.0203
     43 C         139.5758  144.6752  164.7563 C.ar    1  UNL1       -0.0015
     44 C         140.4829  144.7939  163.5676 C.ar    1  UNL1       -0.0069
     45 C         141.9314  145.1328  163.7604 C.3     1  UNL1        0.0323
@<TRIPOS>BOND
     1    25    26    1
     2    26    27   am
     3    27    28    2
     4    27    19    1
     5    19    20   ar
     6    20    21   ar
     7    21    22   ar
     8    22    13    1
     9    13    14   ar
    10    14    15   ar
    11    15    16   ar
    12    16     1    1
    13     1     2   am
    14     2     3    2
    15     2     4   am
    16     4    30    1
    17    30    31   ar
    18    31    32   ar
    19    32    36    1
    20    36    37    1
    21    32    33   ar
    22    33    34   ar
    23    34    35   ar
    24     4     5    1
    25     5     6    1
    26     6     7    1
    27     7     8    1
    28     8    38    1
    29    38    39    1
    30    39    40   ar
    31    40    41   ar
    32    41    42   ar
    33    42    43   ar
    34    43    44   ar
    35    44    45    1
    36     8     9    1
    37     9    10    1
    38     5    11    1
    39    11    12    2
    40    16    17   ar
    41    17    18   ar
    42    22    23   ar
    43    23    24   ar
    44    24    19   ar
    45    18    13   ar
    46    11     1   am
    47    35    30   ar
    48    10     5    1
    49    44    39   ar
    50    26    29    1
@<TRIPOS>MOLECULE
*****
 45 50 0 0 0
SMALL
GASTEIGER

@<TRIPOS>ATOM
      1 N         143.3880  141.0452  156.7656 N.am    1  UNL1       -0.1907
      2 C         142.0692  141.4807  156.1988 C.2     1  UNL1        0.3219
      3 O         141.8712  142.3255  154.9753 O.2     1  UNL1       -0.2512
      4 N         140.9832  140.9231  157.0704 N.am    1  UNL1       -0.2222
      5 C         141.6308  140.1429  158.1760 C.3     1  UNL1        0.1391
      6 C         142.4162  139.4019  159.2171 C.3     1  UNL1        0.0449
      7 C         141.7028  138.6741  160.3177 C.3     1  UNL1        0.0746
      8 N         140.2040  138.6874  160.3772 N.3     1  UNL1       -0.2676
      9 C         139.4186  139.4285  159.3360 C.3     1  UNL1        0.0746
     10 C         140.1320  140.1562  158.2354 C.3     1  UNL1        0.0449
     11 C         143.1170  140.2184  157.9876 C.2     1  UNL1        0.2529
     12 O         144.1508  139.5792  158.8667 O.2     1  UNL1       -0.2724
     13 C         147.4448  142.0435  155.0937 C.ar    1  UNL1        0.0001
     14 C         146.4607  141.2731  154.2643 C.ar    1  UNL1        0.0013
     15 C         145.1084  140.9403  154.8216 C.ar    1  UNL1        0.0154
     16 C         144.7403  141.3780  156.2083 C.ar    1  UNL1        0.0622
     17 C         145.7244  142.1484  157.0376 C.ar    1  UNL1        0.0154
     18 C         147.0766  142.4811  156.4804 C.ar    1  UNL1        0.0013
     19 C         151.5017  143.0419  153.4219 C.ar    1  UNL1        0.0534
     20 C         150.2710  143.6506  152.8178 C.ar    1  UNL1        0.0045
     21 C         148.9187  143.3178  153.3751 C.ar    1  UNL1        0.0001
     22 C         148.7971  142.3763  154.5364 C.ar    1  UNL1        0.0000
     23 C         150.0277  141.7676  155.1406 C.ar    1  UNL1        0.0001
     24 C         151.3801  142.1004  154.5833 C.ar    1  UNL1        0.0045
     25 C         154.5940  145.1392  152.0844 C.3     1  UNL1        0.1109
     26 N         153.2417  144.8065  152.6417 N.am    1  UNL1       -0.2992
     27 C         152.8540  143.3747  152.8646 C.2     1  UNL1        0.2459
     28 O         153.8186  142.2757  152.5302 O.2     1  UNL1       -0.2701
     29 H         152.6086  145.5278  152.8611 H       1  UNL1        0.1498
     30 C         139.5086  141.1124  156.8716 C.ar    1  UNL1        0.1453
     31 C         138.7248  140.1124  156.0743 C.ar    1  UNL1        0.0924
     32 C         137.2502  140.3018  155.8755 C.ar    1  UNL1        0.2293
     33 N         136.5592  141.4912  156.4739 N.ar    1  UNL1       -0.1892
     34 C         137.3430  142.4912  157.2712 C.ar    1  UNL1        0.2027
     35 N         138.8177  142.3018  157.4700 N.ar    1  UNL1       -0.2084
     36 O         136.4664  139.3018  155.0782 O.3     1  UNL1       -0.4560
     37 C         135.0243  139.5625  154.7576 C.3     1  UNL1        0.2542
     38 C         139.4906  137.9596  161.4778 C.3     1  UNL1        0.1183
     39 C         139.2771  138.6280  162.8036 C.ar    1  UNL1        0.0712
     40 N         138.2630  139.7253  162.9356 N.ar    1  UNL1       -0.2471
     41 C         138.0495  140.3937  164.2614 C.ar    1  UNL1        0.0985
     42 C         138.8501  139.9648  165.4551 C.ar    1  UNL1        0.0203
     43 C         139.8642  138.8675  165.3231 C.ar    1  UNL1       -0.0015
     44 C         140.0777  138.1991  163.9974 C.ar    1  UNL1       -0.0069
     45 C         141.0919  137.1018  163.8653 C.3     1  UNL1        0.0323
@<TRIPOS>BOND
     1    25    26    1
     2    26    27   am
     3    27    28    2
     4    27    19    1
     5    19    20   ar
     6    20    21   ar
     7    21    22   ar
     8    22    13    1
     9    13    14   ar
    10    14    15   ar
    11    15    16   ar
    12    16     1    1
    13     1     2   am
    14     2     3    2
    15     2     4   am
    16     4    30    1
    17    30    31   ar
    18    31    32   ar
    19    32    36    1
    20    36    37    1
    21    32    33   ar
    22    33    34   ar
    23    34    35   ar
    24     4     5    1
    25     5     6    1
    26     6     7    1
    27     7     8    1
    28     8    38    1
    29    38    39    1
    30    39    40   ar
    31    40    41   ar
    32    41    42   ar
    33    42    43   ar
    34    43    44   ar
    35    44    45    1
    36     8     9    1
    37     9    10    1
    38     5    11    1
    39    11    12    2
    40    16    17   ar
    41    17    18   ar
    42    22    23   ar
    43    23    24   ar
    44    24    19   ar
    45    18    13   ar
    46    11     1   am
    47    35    30   ar
    48    10     5    1
    49    44    39   ar
    50    26    29    1
@<TRIPOS>MOLECULE
*****
 45 50 0 0 0
SMALL
GASTEIGER

@<TRIPOS>ATOM
      1 N         140.6411  138.7312  157.2054 N.am    1  UNL1       -0.1907
      2 C         140.4282  139.9134  156.3069 C.2     1  UNL1        0.3219
      3 O         140.7859  139.9911  154.8524 O.2     1  UNL1       -0.2512
      4 N         139.7948  141.0043  157.1186 N.am    1  UNL1       -0.2222
      5 C         139.6162  140.4964  158.5187 C.3     1  UNL1        0.1391
      6 C         139.5022  139.8541  159.8694 C.3     1  UNL1        0.0449
      7 C         138.9054  140.6171  161.0146 C.3     1  UNL1        0.0746
      8 N         138.4226  142.0223  160.8092 N.3     1  UNL1       -0.2676
      9 C         138.5367  142.6646  159.4585 C.3     1  UNL1        0.0746
     10 C         139.1335  141.9017  158.3133 C.3     1  UNL1        0.0449
     11 C         140.1393  139.0916  158.5723 C.2     1  UNL1        0.2529
     12 O         140.1573  138.2030  159.7807 O.2     1  UNL1       -0.2724
     13 C         142.4650  134.7950  156.0100 C.ar    1  UNL1        0.0001
     14 C         141.1967  135.2623  155.3595 C.ar    1  UNL1        0.0013
     15 C         140.5887  136.5744  155.7580 C.ar    1  UNL1        0.0154
     16 C         141.2491  137.4192  156.8069 C.ar    1  UNL1        0.0622
     17 C         142.5173  136.9519  157.4573 C.ar    1  UNL1        0.0154
     18 C         143.1252  135.6398  157.0589 C.ar    1  UNL1        0.0013
     19 C         144.2889  130.8587  154.8145 C.ar    1  UNL1        0.0534
     20 C         144.7699  131.5646  156.0476 C.ar    1  UNL1        0.0045
     21 C         144.1620  132.8766  156.4461 C.ar    1  UNL1        0.0001
     22 C         143.0730  133.4829  155.6115 C.ar    1  UNL1        0.0000
     23 C         142.5919  132.7771  154.3784 C.ar    1  UNL1        0.0001
     24 C         143.1999  131.4650  153.9799 C.ar    1  UNL1        0.0045
     25 C         145.8621  127.9782  152.5834 C.3     1  UNL1        0.1109
     26 N         145.2542  129.2903  152.9819 N.am    1  UNL1       -0.2992
     27 C         144.8968  129.5466  154.4160 C.2     1  UNL1        0.2459
     28 O         145.1475  128.4908  155.4516 O.2     1  UNL1       -0.2701
     29 H         145.0897  129.9832  152.3022 H       1  UNL1        0.1498
     30 C         139.4079  142.3644  156.6181 C.ar    1  UNL1        0.1453
     31 C         140.3776  143.5044  156.7184 C.ar    1  UNL1        0.0924
     32 C         139.9906  144.8644  156.2178 C.ar    1  UNL1        0.2293
     33 N         138.6339  145.0845  155.6170 N.ar    1  UNL1       -0.1892
     34 C         137.6642  143.9445  155.5168 C.ar    1  UNL1        0.2027
     35 N         138.0512  142.5845  156.0173 N.ar    1  UNL1       -0.2084
     36 O         140.9603  146.0044  156.3181 O.3     1  UNL1       -0.4560
     37 C         142.0778  145.9529  157.3175 C.3     1  UNL1        0.2542
     38 C         137.8258  142.7853  161.9546 C.3     1  UNL1        0.1183
     39 C         138.6083  142.9713  163.2207 C.ar    1  UNL1        0.0712
     40 N         138.6212  141.8899  164.2601 N.ar    1  UNL1       -0.2471
     41 C         139.4038  142.0760  165.5263 C.ar    1  UNL1        0.0985
     42 C         140.1734  143.3434  165.7529 C.ar    1  UNL1        0.0203
     43 C         140.1605  144.4248  164.7134 C.ar    1  UNL1       -0.0015
     44 C         139.3780  144.2388  163.4474 C.ar    1  UNL1       -0.0069
     45 C         139.3650  145.3201  162.4079 C.3     1  UNL1        0.0323
@<TRIPOS>BOND
     1    25    26    1
     2    26    27   am
     3    27    28    2
     4    27    19    1
     5    19    20   ar
     6    20    21   ar
     7    21    22   ar
     8    22    13    1
     9    13    14   ar
    10    14    15   ar
    11    15    16   ar
    12    16     1    1
    13     1     2   am
    14     2     3    2
    15     2     4   am
    16     4    30    1
    17    30    31   ar
    18    31    32   ar
    19    32    36    1
    20    36    37    1
    21    32    33   ar
    22    33    34   ar
    23    34    35   ar
    24     4     5    1
    25     5     6    1
    26     6     7    1
    27     7     8    1
    28     8    38    1
    29    38    39    1
    30    39    40   ar
    31    40    41   ar
    32    41    42   ar
    33    42    43   ar
    34    43    44   ar
    35    44    45    1
    36     8     9    1
    37     9    10    1
    38     5    11    1
    39    11    12    2
    40    16    17   ar
    41    17    18   ar
    42    22    23   ar
    43    23    24   ar
    44    24    19   ar
    45    18    13   ar
    46    11     1   am
    47    35    30   ar
    48    10     5    1
    49    44    39   ar
    50    26    29    1
@<TRIPOS>MOLECULE
*****
 45 50 0 0 0
SMALL
GASTEIGER

@<TRIPOS>ATOM
      1 N         140.7721  138.7312  157.1991 N.am    1  UNL1       -0.1907
      2 C         140.7114  139.9900  156.3857 C.2     1  UNL1        0.3219
      3 O         141.1966  140.1530  154.9758 O.2     1  UNL1       -0.2512
      4 N         140.0801  141.0573  157.2297 N.am    1  UNL1       -0.2222
      5 C         139.7507  140.4581  158.5649 C.3     1  UNL1        0.1391
      6 C         139.4813  139.7246  159.8452 C.3     1  UNL1        0.0449
      7 C         138.8374  140.4378  160.9970 C.3     1  UNL1        0.0746
      8 N         138.4628  141.8845  160.8684 N.3     1  UNL1       -0.2676
      9 C         138.7322  142.6181  159.5881 C.3     1  UNL1        0.0746
     10 C         139.3761  141.9049  158.4363 C.3     1  UNL1        0.0449
     11 C         140.1784  139.0205  158.5460 C.2     1  UNL1        0.2529
     12 O         140.0371  138.0437  159.6755 O.2     1  UNL1       -0.2724
     13 C         142.4422  134.7805  155.8380 C.ar    1  UNL1        0.0001
     14 C         141.1665  135.3001  155.2442 C.ar    1  UNL1        0.0013
     15 C         140.6098  136.6170  155.6979 C.ar    1  UNL1        0.0154
     16 C         141.3288  137.4143  156.7454 C.ar    1  UNL1        0.0622
     17 C         142.6044  136.8947  157.3392 C.ar    1  UNL1        0.0154
     18 C         143.1611  135.5778  156.8855 C.ar    1  UNL1        0.0013
     19 C         144.1122  130.8297  154.4769 C.ar    1  UNL1        0.0534
     20 C         144.5994  131.4504  155.7527 C.ar    1  UNL1        0.0045
     21 C         144.0427  132.7673  156.2064 C.ar    1  UNL1        0.0001
     22 C         142.9989  133.4636  155.3843 C.ar    1  UNL1        0.0000
     23 C         142.5117  132.8429  154.1086 C.ar    1  UNL1        0.0001
     24 C         143.0684  131.5259  153.6549 C.ar    1  UNL1        0.0045
     25 C         146.1214  127.4073  154.4781 C.3     1  UNL1        0.1109
     26 N         145.5647  128.7242  154.9318 N.am    1  UNL1       -0.2992
     27 C         144.6689  129.5128  154.0232 C.2     1  UNL1        0.2459
     28 O         144.3298  128.9846  152.6609 O.2     1  UNL1       -0.2701
     29 H         145.7873  129.0709  155.8260 H       1  UNL1        0.1498
     30 C         139.8234  142.4749  156.8121 C.ar    1  UNL1        0.1453
     31 C         138.5391  142.8335  156.1250 C.ar    1  UNL1        0.0924
     32 C         138.2824  144.2511  155.7074 C.ar    1  UNL1        0.2293
     33 N         139.3099  145.3102  155.9768 N.ar    1  UNL1       -0.1892
     34 C         140.5942  144.9517  156.6640 C.ar    1  UNL1        0.2027
     35 N         140.8509  143.5340  157.0816 N.ar    1  UNL1       -0.2084
     36 O         136.9982  144.6097  155.0202 O.3     1  UNL1       -0.4560
     37 C         136.6567  143.9900  153.6975 C.3     1  UNL1        0.2542
     38 C         137.8188  142.5977  162.0202 C.3     1  UNL1        0.1183
     39 C         138.5910  142.8297  163.2851 C.ar    1  UNL1        0.0712
     40 N         138.6751  141.7486  164.3214 N.ar    1  UNL1       -0.2471
     41 C         139.4474  141.9806  165.5863 C.ar    1  UNL1        0.0985
     42 C         140.1354  143.2937  165.8148 C.ar    1  UNL1        0.0203
     43 C         140.0513  144.3748  164.7784 C.ar    1  UNL1       -0.0015
     44 C         139.2791  144.1429  163.5136 C.ar    1  UNL1       -0.0069
     45 C         139.1950  145.2240  162.4772 C.3     1  UNL1        0.0323
@<TRIPOS>BOND
     1    25    26    1
     2    26    27   am
     3    27    28    2
     4    27    19    1
     5    19    20   ar
     6    20    21   ar
     7    21    22   ar
     8    22    13    1
     9    13    14   ar
    10    14    15   ar
    11    15    16   ar
    12    16     1    1
    13     1     2   am
    14     2     3    2
    15     2     4   am
    16     4    30    1
    17    30    31   ar
    18    31    32   ar
    19    32    36    1
    20    36    37    1
    21    32    33   ar
    22    33    34   ar
    23    34    35   ar
    24     4     5    1
    25     5     6    1
    26     6     7    1
    27     7     8    1
    28     8    38    1
    29    38    39    1
    30    39    40   ar
    31    40    41   ar
    32    41    42   ar
    33    42    43   ar
    34    43    44   ar
    35    44    45    1
    36     8     9    1
    37     9    10    1
    38     5    11    1
    39    11    12    2
    40    16    17   ar
    41    17    18   ar
    42    22    23   ar
    43    23    24   ar
    44    24    19   ar
    45    18    13   ar
    46    11     1   am
    47    35    30   ar
    48    10     5    1
    49    44    39   ar
    50    26    29    1
@<TRIPOS>MOLECULE
*****
 45 50 0 0 0
SMALL
GASTEIGER

@<TRIPOS>ATOM
      1 N         140.9956  138.9611  157.2488 N.am    1  UNL1       -0.1907
      2 C         141.2845  140.3062  156.6510 C.2     1  UNL1        0.3219
      3 O         142.0447  140.5629  155.3837 O.2     1  UNL1       -0.2512
      4 N         140.6795  141.3495  157.5430 N.am    1  UNL1       -0.2222
      5 C         140.0168  140.6493  158.6921 C.3     1  UNL1        0.1391
      6 C         139.4017  139.8144  159.7759 C.3     1  UNL1        0.0449
      7 C         138.6718  140.4744  160.9080 C.3     1  UNL1        0.0746
      8 N         138.5571  141.9692  160.9563 N.3     1  UNL1       -0.2676
      9 C         139.1721  142.8040  159.8725 C.3     1  UNL1        0.0746
     10 C         139.9020  142.1441  158.7405 C.3     1  UNL1        0.0449
     11 C         140.2121  139.1732  158.5104 C.2     1  UNL1        0.2529
     12 O         139.7119  138.0979  159.4288 O.2     1  UNL1       -0.2724
     13 C         142.2577  134.9876  155.5553 C.ar    1  UNL1        0.0001
     14 C         141.0206  135.6628  155.0420 C.ar    1  UNL1        0.0013
     15 C         140.5998  136.9873  155.6065 C.ar    1  UNL1        0.0154
     16 C         141.4163  137.6366  156.6843 C.ar    1  UNL1        0.0622
     17 C         142.6534  136.9615  157.1976 C.ar    1  UNL1        0.0154
     18 C         143.0741  135.6370  156.6331 C.ar    1  UNL1        0.0013
     19 C         143.5199  131.0141  153.8617 C.ar    1  UNL1        0.0534
     20 C         143.9941  131.4347  155.2213 C.ar    1  UNL1        0.0045
     21 C         143.5734  132.7592  155.7858 C.ar    1  UNL1        0.0001
     22 C         142.6785  133.6632  154.9908 C.ar    1  UNL1        0.0000
     23 C         142.2042  133.2426  153.6313 C.ar    1  UNL1        0.0001
     24 C         142.6249  131.9180  153.0668 C.ar    1  UNL1        0.0045
     25 C         145.8138  127.9925  152.6966 C.3     1  UNL1        0.1109
     26 N         145.3931  129.3170  153.2611 N.am    1  UNL1       -0.2992
     27 C         143.9406  129.6896  153.2972 C.2     1  UNL1        0.2459
     28 O         142.9087  128.7377  152.7689 O.2     1  UNL1       -0.2701
     29 H         146.0704  129.9418  153.6079 H       1  UNL1        0.1498
     30 C         140.7287  142.8326  157.3243 C.ar    1  UNL1        0.1453
     31 C         139.6558  143.5086  156.5230 C.ar    1  UNL1        0.0924
     32 C         139.7050  144.9918  156.3044 C.ar    1  UNL1        0.2293
     33 N         140.8271  145.7990  156.8870 N.ar    1  UNL1       -0.1892
     34 C         141.8999  145.1231  157.6883 C.ar    1  UNL1        0.2027
     35 N         141.8507  143.6399  157.9069 N.ar    1  UNL1       -0.2084
     36 O         138.6322  145.6677  155.5031 O.3     1  UNL1       -0.4560
     37 C         138.7586  147.1216  155.1561 C.3     1  UNL1        0.2542
     38 C         137.8271  142.6291  162.0885 C.3     1  UNL1        0.1183
     39 C         138.5248  142.8631  163.3956 C.ar    1  UNL1        0.0712
     40 N         138.6286  141.7533  164.3995 N.ar    1  UNL1       -0.2471
     41 C         139.3263  141.9873  165.7066 C.ar    1  UNL1        0.0985
     42 C         139.9201  143.3310  166.0098 C.ar    1  UNL1        0.0203
     43 C         139.8162  144.4407  165.0060 C.ar    1  UNL1       -0.0015
     44 C         139.1186  144.2068  163.6989 C.ar    1  UNL1       -0.0069
     45 C         139.0147  145.3165  162.6950 C.3     1  UNL1        0.0323
@<TRIPOS>BOND
     1    25    26    1
     2    26    27   am
     3    27    28    2
     4    27    19    1
     5    19    20   ar
     6    20    21   ar
     7    21    22   ar
     8    22    13    1
     9    13    14   ar
    10    14    15   ar
    11    15    16   ar
    12    16     1    1
    13     1     2   am
    14     2     3    2
    15     2     4   am
    16     4    30    1
    17    30    31   ar
    18    31    32   ar
    19    32    36    1
    20    36    37    1
    21    32    33   ar
    22    33    34   ar
    23    34    35   ar
    24     4     5    1
    25     5     6    1
    26     6     7    1
    27     7     8    1
    28     8    38    1
    29    38    39    1
    30    39    40   ar
    31    40    41   ar
    32    41    42   ar
    33    42    43   ar
    34    43    44   ar
    35    44    45    1
    36     8     9    1
    37     9    10    1
    38     5    11    1
    39    11    12    2
    40    16    17   ar
    41    17    18   ar
    42    22    23   ar
    43    23    24   ar
    44    24    19   ar
    45    18    13   ar
    46    11     1   am
    47    35    30   ar
    48    10     5    1
    49    44    39   ar
    50    26    29    1
@<TRIPOS>MOLECULE
*****
 45 50 0 0 0
SMALL
GASTEIGER

@<TRIPOS>ATOM
      1 N         140.3900  138.5079  156.7650 N.am    1  UNL1       -0.1907
      2 C         139.8697  139.5556  155.8260 C.2     1  UNL1        0.3219
      3 O         139.8950  139.4878  154.3279 O.2     1  UNL1       -0.2512
      4 N         139.3197  140.6831  156.6484 N.am    1  UNL1       -0.2222
      5 C         139.5000  140.3322  158.0956 C.3     1  UNL1        0.1391
      6 C         139.7459  139.8474  159.4936 C.3     1  UNL1        0.0449
      7 C         139.3365  140.6925  160.6633 C.3     1  UNL1        0.0746
      8 N         138.6813  142.0224  160.4350 N.3     1  UNL1       -0.2676
      9 C         138.4354  142.5072  159.0370 C.3     1  UNL1        0.0746
     10 C         138.8447  141.6621  157.8673 C.3     1  UNL1        0.0449
     11 C         140.1615  138.9879  158.1677 C.2     1  UNL1        0.2529
     12 O         140.5298  138.2526  159.4222 O.2     1  UNL1       -0.2724
     13 C         142.3008  134.6094  155.5817 C.ar    1  UNL1        0.0001
     14 C         142.9699  135.4974  156.5887 C.ar    1  UNL1        0.0013
     15 C         142.3329  136.7969  156.9831 C.ar    1  UNL1        0.0154
     16 C         141.0269  137.2084  156.3706 C.ar    1  UNL1        0.0622
     17 C         140.3580  136.3204  155.3638 C.ar    1  UNL1        0.0154
     18 C         140.9949  135.0209  154.9693 C.ar    1  UNL1        0.0013
     19 C         144.2117  130.7109  154.3984 C.ar    1  UNL1        0.0534
     20 C         144.5485  131.3414  155.7172 C.ar    1  UNL1        0.0045
     21 C         143.9115  132.6409  156.1116 C.ar    1  UNL1        0.0001
     22 C         142.9378  133.3099  155.1873 C.ar    1  UNL1        0.0000
     23 C         142.6010  132.6794  153.8686 C.ar    1  UNL1        0.0001
     24 C         143.2380  131.3799  153.4741 C.ar    1  UNL1        0.0045
     25 C         146.2368  127.3055  154.6272 C.3     1  UNL1        0.1109
     26 N         145.5999  128.6050  155.0216 N.am    1  UNL1       -0.2992
     27 C         144.8486  129.4114  154.0040 C.2     1  UNL1        0.2459
     28 O         144.7344  128.9183  152.5920 O.2     1  UNL1       -0.2701
     29 H         145.6748  128.9286  155.9483 H       1  UNL1        0.1498
     30 C         138.6984  141.9406  156.1169 C.ar    1  UNL1        0.1453
     31 C         139.5554  143.1383  155.8321 C.ar    1  UNL1        0.0924
     32 C         138.9340  144.3958  155.3006 C.ar    1  UNL1        0.2293
     33 N         137.4556  144.4558  155.0539 N.ar    1  UNL1       -0.1892
     34 C         136.5986  143.2581  155.3387 C.ar    1  UNL1        0.2027
     35 N         137.2200  142.0006  155.8702 N.ar    1  UNL1       -0.2084
     36 O         139.7910  145.5935  155.0158 O.3     1  UNL1       -0.4560
     37 C         140.8364  146.0198  156.0034 C.3     1  UNL1        0.2542
     38 C         138.2720  142.8675  161.6048 C.3     1  UNL1        0.1183
     39 C         139.3089  143.6160  162.3887 C.ar    1  UNL1        0.0712
     40 N         140.6193  143.9713  161.7511 N.ar    1  UNL1       -0.2471
     41 C         141.6563  144.7198  162.5350 C.ar    1  UNL1        0.0985
     42 C         141.3828  145.1130  163.9565 C.ar    1  UNL1        0.0203
     43 C         140.0724  144.7576  164.5941 C.ar    1  UNL1       -0.0015
     44 C         139.0355  144.0091  163.8102 C.ar    1  UNL1       -0.0069
     45 C         137.7251  143.6538  164.4479 C.3     1  UNL1        0.0323
@<TRIPOS>BOND
     1    25    26    1
     2    26    27   am
     3    27    28    2
     4    27    19    1
     5    19    20   ar
     6    20    21   ar
     7    21    22   ar
     8    22    13    1
     9    13    14   ar
    10    14    15   ar
    11    15    16   ar
    12    16     1    1
    13     1     2   am
    14     2     3    2
    15     2     4   am
    16     4    30    1
    17    30    31   ar
    18    31    32   ar
    19    32    36    1
    20    36    37    1
    21    32    33   ar
    22    33    34   ar
    23    34    35   ar
    24     4     5    1
    25     5     6    1
    26     6     7    1
    27     7     8    1
    28     8    38    1
    29    38    39    1
    30    39    40   ar
    31    40    41   ar
    32    41    42   ar
    33    42    43   ar
    34    43    44   ar
    35    44    45    1
    36     8     9    1
    37     9    10    1
    38     5    11    1
    39    11    12    2
    40    16    17   ar
    41    17    18   ar
    42    22    23   ar
    43    23    24   ar
    44    24    19   ar
    45    18    13   ar
    46    11     1   am
    47    35    30   ar
    48    10     5    1
    49    44    39   ar
    50    26    29    1
@<TRIPOS>MOLECULE
*****
 45 50 0 0 0
SMALL
GASTEIGER

@<TRIPOS>ATOM
      1 N         140.7414  143.1604  156.3665 N.am    1  UNL1       -0.1907
      2 C         140.3207  141.9121  155.6490 C.2     1  UNL1        0.3219
      3 O         139.5319  141.8510  154.3747 O.2     1  UNL1       -0.2512
      4 N         140.8274  140.7356  156.4295 N.am    1  UNL1       -0.2222
      5 C         141.5613  141.2567  157.6295 C.3     1  UNL1        0.1391
      6 C         142.2603  141.9220  158.7778 C.3     1  UNL1        0.0449
      7 C         142.9298  141.0906  159.8316 C.3     1  UNL1        0.0746
      8 N         142.9001  139.5939  159.7371 N.3     1  UNL1       -0.2676
      9 C         142.2011  138.9286  158.5888 C.3     1  UNL1        0.0746
     10 C         141.5317  139.7600  157.5350 C.3     1  UNL1        0.0449
     11 C         141.5082  142.7553  157.5906 C.2     1  UNL1        0.2529
     12 O         142.1152  143.6855  158.5987 O.2     1  UNL1       -0.2724
     13 C         139.8585  147.3794  155.0742 C.ar    1  UNL1        0.0001
     14 C         139.3342  146.8710  156.3844 C.ar    1  UNL1        0.0013
     15 C         139.6285  145.4647  156.8152 C.ar    1  UNL1        0.0154
     16 C         140.4471  144.5667  155.9358 C.ar    1  UNL1        0.0622
     17 C         140.9714  145.0750  154.6256 C.ar    1  UNL1        0.0154
     18 C         140.6771  146.4814  154.1948 C.ar    1  UNL1        0.0013
     19 C         138.9756  151.5984  153.7819 C.ar    1  UNL1        0.0534
     20 C         139.6405  150.6466  152.8320 C.ar    1  UNL1        0.0045
     21 C         139.9348  149.2403  153.2628 C.ar    1  UNL1        0.0001
     22 C         139.5642  148.7857  154.6434 C.ar    1  UNL1        0.0000
     23 C         138.8994  149.7374  155.5933 C.ar    1  UNL1        0.0001
     24 C         138.6051  151.1438  155.1625 C.ar    1  UNL1        0.0045
     25 C         137.2656  155.1730  153.5622 C.3     1  UNL1        0.1109
     26 N         137.5599  153.7667  153.9930 N.am    1  UNL1       -0.2992
     27 C         138.6813  153.0048  153.3511 C.2     1  UNL1        0.2459
     28 O         139.5084  153.6492  152.2785 O.2     1  UNL1       -0.2701
     29 H         137.0170  153.3437  154.6970 H       1  UNL1        0.1498
     30 C         140.6342  139.2916  156.0727 C.ar    1  UNL1        0.1453
     31 C         141.6802  138.5692  155.2766 C.ar    1  UNL1        0.0924
     32 C         141.4869  137.1251  154.9199 C.ar    1  UNL1        0.2293
     33 N         140.2475  136.4033  155.3593 N.ar    1  UNL1       -0.1892
     34 C         139.2015  137.1257  156.1555 C.ar    1  UNL1        0.2027
     35 N         139.3948  138.5698  156.5122 N.ar    1  UNL1       -0.2084
     36 O         142.5330  136.4027  154.1237 O.3     1  UNL1       -0.4560
     37 C         142.9048  134.9933  154.4778 C.3     1  UNL1        0.2542
     38 C         143.5696  138.7624  160.7909 C.3     1  UNL1        0.1183
     39 C         142.8162  138.3692  162.0269 C.ar    1  UNL1        0.0712
     40 N         141.5593  137.5584  161.9129 N.ar    1  UNL1       -0.2471
     41 C         140.8058  137.1652  163.1490 C.ar    1  UNL1        0.0985
     42 C         141.3092  137.5827  164.4989 C.ar    1  UNL1        0.0203
     43 C         142.5660  138.3935  164.6128 C.ar    1  UNL1       -0.0015
     44 C         143.3195  138.7868  163.3769 C.ar    1  UNL1       -0.0069
     45 C         144.5763  139.5976  163.4908 C.3     1  UNL1        0.0323
@<TRIPOS>BOND
     1    25    26    1
     2    26    27   am
     3    27    28    2
     4    27    19    1
     5    19    20   ar
     6    20    21   ar
     7    21    22   ar
     8    22    13    1
     9    13    14   ar
    10    14    15   ar
    11    15    16   ar
    12    16     1    1
    13     1     2   am
    14     2     3    2
    15     2     4   am
    16     4    30    1
    17    30    31   ar
    18    31    32   ar
    19    32    36    1
    20    36    37    1
    21    32    33   ar
    22    33    34   ar
    23    34    35   ar
    24     4     5    1
    25     5     6    1
    26     6     7    1
    27     7     8    1
    28     8    38    1
    29    38    39    1
    30    39    40   ar
    31    40    41   ar
    32    41    42   ar
    33    42    43   ar
    34    43    44   ar
    35    44    45    1
    36     8     9    1
    37     9    10    1
    38     5    11    1
    39    11    12    2
    40    16    17   ar
    41    17    18   ar
    42    22    23   ar
    43    23    24   ar
    44    24    19   ar
    45    18    13   ar
    46    11     1   am
    47    35    30   ar
    48    10     5    1
    49    44    39   ar
    50    26    29    1
@<TRIPOS>MOLECULE
*****
 45 50 0 0 0
SMALL
GASTEIGER

@<TRIPOS>ATOM
      1 N         141.8449  137.8218  157.4957 N.am    1  UNL1       -0.1907
      2 C         141.1548  138.9464  156.7821 C.2     1  UNL1        0.3219
      3 O         140.7318  138.9497  155.3431 O.2     1  UNL1       -0.2512
      4 N         140.9620  140.0671  157.7603 N.am    1  UNL1       -0.2222
      5 C         141.5329  139.6352  159.0786 C.3     1  UNL1        0.1391
      6 C         142.1413  139.0678  160.3267 C.3     1  UNL1        0.0449
      7 C         142.1628  139.8807  161.5871 C.3     1  UNL1        0.0746
      8 N         141.5759  141.2611  161.5993 N.3     1  UNL1       -0.2676
      9 C         140.9675  141.8285  160.3511 C.3     1  UNL1        0.0746
     10 C         140.9460  141.0155  159.0908 C.3     1  UNL1        0.0449
     11 C         142.0786  138.2475  158.9150 C.2     1  UNL1        0.2529
     12 O         142.7415  137.4292  159.9831 O.2     1  UNL1       -0.2724
     13 C         143.0096  133.8657  155.6950 C.ar    1  UNL1        0.0001
     14 C         141.7826  134.5788  155.2092 C.ar    1  UNL1        0.0013
     15 C         141.3943  135.8974  155.8094 C.ar    1  UNL1        0.0154
     16 C         142.2331  136.5031  156.8955 C.ar    1  UNL1        0.0622
     17 C         143.4601  135.7901  157.3813 C.ar    1  UNL1        0.0154
     18 C         143.8483  134.4715  156.7810 C.ar    1  UNL1        0.0013
     19 C         144.1744  129.9096  153.8942 C.ar    1  UNL1        0.0534
     20 C         143.2338  130.8196  153.1611 C.ar    1  UNL1        0.0045
     21 C         142.8455  132.1383  153.7613 C.ar    1  UNL1        0.0001
     22 C         143.3978  132.5471  155.0947 C.ar    1  UNL1        0.0000
     23 C         144.3384  131.6372  155.8279 C.ar    1  UNL1        0.0001
     24 C         144.7266  130.3184  155.2276 C.ar    1  UNL1        0.0045
     25 C         146.3327  126.7290  152.9067 C.3     1  UNL1        0.1109
     26 N         145.9445  128.0477  153.5070 N.am    1  UNL1       -0.2992
     27 C         144.5626  128.5909  153.2940 C.2     1  UNL1        0.2459
     28 O         143.5690  127.8155  152.4807 O.2     1  UNL1       -0.2701
     29 H         146.5966  128.5567  154.0407 H       1  UNL1        0.1498
     30 C         140.3123  141.3878  157.4712 C.ar    1  UNL1        0.1453
     31 C         141.1445  142.5489  157.0139 C.ar    1  UNL1        0.0924
     32 C         140.4948  143.8696  156.7248 C.ar    1  UNL1        0.2293
     33 N         139.0128  144.0292  156.8930 N.ar    1  UNL1       -0.1892
     34 C         138.1806  142.8681  157.3504 C.ar    1  UNL1        0.2027
     35 N         138.8303  141.5474  157.6395 N.ar    1  UNL1       -0.2084
     36 O         141.3270  145.0307  156.2674 O.3     1  UNL1       -0.4560
     37 C         142.0344  145.8891  157.2738 C.3     1  UNL1        0.2542
     38 C         141.5974  142.0741  162.8597 C.3     1  UNL1        0.1183
     39 C         140.3309  142.6891  163.3772 C.ar    1  UNL1        0.0712
     40 N         139.0620  141.8895  163.3961 N.ar    1  UNL1       -0.2471
     41 C         137.7955  142.5046  163.9136 C.ar    1  UNL1        0.0985
     42 C         137.7980  143.9193  164.4122 C.ar    1  UNL1        0.0203
     43 C         139.0670  144.7189  164.3933 C.ar    1  UNL1       -0.0015
     44 C         140.3334  144.1039  163.8758 C.ar    1  UNL1       -0.0069
     45 C         141.6023  144.9035  163.8569 C.3     1  UNL1        0.0323
@<TRIPOS>BOND
     1    25    26    1
     2    26    27   am
     3    27    28    2
     4    27    19    1
     5    19    20   ar
     6    20    21   ar
     7    21    22   ar
     8    22    13    1
     9    13    14   ar
    10    14    15   ar
    11    15    16   ar
    12    16     1    1
    13     1     2   am
    14     2     3    2
    15     2     4   am
    16     4    30    1
    17    30    31   ar
    18    31    32   ar
    19    32    36    1
    20    36    37    1
    21    32    33   ar
    22    33    34   ar
    23    34    35   ar
    24     4     5    1
    25     5     6    1
    26     6     7    1
    27     7     8    1
    28     8    38    1
    29    38    39    1
    30    39    40   ar
    31    40    41   ar
    32    41    42   ar
    33    42    43   ar
    34    43    44   ar
    35    44    45    1
    36     8     9    1
    37     9    10    1
    38     5    11    1
    39    11    12    2
    40    16    17   ar
    41    17    18   ar
    42    22    23   ar
    43    23    24   ar
    44    24    19   ar
    45    18    13   ar
    46    11     1   am
    47    35    30   ar
    48    10     5    1
    49    44    39   ar
    50    26    29    1
