@<TRIPOS>MOLECULE
*****
 32 35 0 0 0
SMALL
GASTEIGER

@<TRIPOS>ATOM
      1 O         142.8184  140.6243  157.9621 O.2     1  UNL1       -0.2522
      2 C         142.1927  140.1942  159.2557 C.2     1  UNL1        0.3079
      3 N         142.1837  141.1264  160.4310 N.am    1  UNL1       -0.2844
      4 N         141.5758  138.8321  159.3741 N.am    1  UNL1       -0.2448
      5 H         141.7730  140.8441  161.2800 H       1  UNL1        0.1513
      6 C         140.9501  138.4020  160.6678 C.ar    1  UNL1        0.0552
      7 C         141.8068  137.8505  161.7685 C.ar    1  UNL1        0.0155
      8 C         141.1811  137.4204  163.0621 C.ar    1  UNL1        0.0080
      9 C         139.6985  137.5418  163.2550 C.ar    1  UNL1        0.0346
     10 BR        139.0727  137.1117  164.5486 Br      1  UNL1       -0.0490
     11 C         138.8417  138.0933  162.1542 C.ar    1  UNL1        0.0080
     12 C         139.4675  138.5234  160.8606 C.ar    1  UNL1        0.0155
     13 C         141.5848  137.9000  158.1989 C.3     1  UNL1        0.0840
     14 C         142.7797  137.0309  157.9401 C.3     1  UNL1        0.0376
     15 C         142.7886  136.0988  156.7649 C.3     1  UNL1        0.0738
     16 N         141.6028  136.0359  155.8485 N.3     1  UNL1       -0.2738
     17 C         140.4080  136.9050  156.1073 C.3     1  UNL1        0.0738
     18 C         140.3990  137.8371  157.2825 C.3     1  UNL1        0.0376
     19 C         141.6117  135.1038  154.6733 C.3     1  UNL1        0.0575
     20 C         141.4465  133.6140  154.7283 C.3     1  UNL1        0.0160
     21 C         141.5202  133.0873  153.3256 C.3     1  UNL1        0.0014
     22 C         141.7309  134.2517  152.4037 C.3     1  UNL1        0.0014
     23 C         141.7875  135.4980  153.2366 C.3     1  UNL1        0.0160
     24 C         142.8005  142.4885  160.3126 C.3     1  UNL1        0.1177
     25 C         142.4560  143.5569  161.3075 C.ar    1  UNL1       -0.0009
     26 C         143.3656  143.8199  162.4709 C.ar    1  UNL1        0.0088
     27 C         143.0210  144.8883  163.4657 C.ar    1  UNL1        0.0583
     28 CL        143.9306  145.1513  164.6292 Cl      1  UNL1       -0.0822
     29 C         141.7669  145.6937  163.2972 C.ar    1  UNL1        0.0228
     30 C         140.8573  145.4307  162.1339 C.ar    1  UNL1        0.0583
     31 CL        139.6032  146.2362  161.9654 Cl      1  UNL1       -0.0822
     32 C         141.2019  144.3624  161.1390 C.ar    1  UNL1        0.0088
@<TRIPOS>BOND
     1     1     2    2
     2     2     3   am
     3     3    24    1
     4    24    25    1
     5    25    26   ar
     6    26    27   ar
     7    27    28    1
     8    27    29   ar
     9    29    30   ar
    10    30    31    1
    11    30    32   ar
    12     2     4   am
    13     4     6    1
    14     6     7   ar
    15     7     8   ar
    16     8     9   ar
    17     9    10    1
    18     9    11   ar
    19    11    12   ar
    20     4    13    1
    21    13    14    1
    22    14    15    1
    23    15    16    1
    24    16    19    1
    25    19    20    1
    26    20    21    1
    27    21    22    1
    28    22    23    1
    29    16    17    1
    30    17    18    1
    31    32    25   ar
    32    12     6   ar
    33    18    13    1
    34    23    19    1
    35     3     5    1
@<TRIPOS>MOLECULE
*****
 32 35 0 0 0
SMALL
GASTEIGER

@<TRIPOS>ATOM
      1 O         142.0824  141.2880  158.1283 O.2     1  UNL1       -0.2522
      2 C         142.1930  139.9994  157.3685 C.2     1  UNL1        0.3079
      3 N         142.8043  139.9865  155.9987 N.am    1  UNL1       -0.2844
      4 N         141.6923  138.7238  157.9784 N.am    1  UNL1       -0.2448
      5 H         142.8769  139.1407  155.5000 H       1  UNL1        0.1513
      6 C         141.8029  137.4352  157.2186 C.ar    1  UNL1        0.0552
      7 C         142.9751  136.5277  157.4476 C.ar    1  UNL1        0.0155
      8 C         143.0858  135.2391  156.6878 C.ar    1  UNL1        0.0080
      9 C         142.0241  134.8580  155.6990 C.ar    1  UNL1        0.0346
     10 BR        142.1347  133.5694  154.9393 Br      1  UNL1       -0.0490
     11 C         140.8519  135.7654  155.4701 C.ar    1  UNL1        0.0080
     12 C         140.7413  137.0540  156.2299 C.ar    1  UNL1        0.0155
     13 C         141.0811  138.7367  159.3481 C.3     1  UNL1        0.0840
     14 C         139.6175  139.0207  159.5136 C.3     1  UNL1        0.0376
     15 C         139.0062  139.0336  160.8833 C.3     1  UNL1        0.0738
     16 N         139.8585  138.7627  162.0876 N.3     1  UNL1       -0.2738
     17 C         141.3220  138.4787  161.9221 C.3     1  UNL1        0.0738
     18 C         141.9334  138.4658  160.5524 C.3     1  UNL1        0.0376
     19 C         139.2472  138.7756  163.4573 C.3     1  UNL1        0.0575
     20 C         139.2220  137.6276  164.4224 C.3     1  UNL1        0.0160
     21 C         138.5130  138.0814  165.6641 C.3     1  UNL1        0.0014
     22 C         138.1001  139.5099  165.4663 C.3     1  UNL1        0.0014
     23 C         138.5539  139.9389  164.1025 C.3     1  UNL1        0.0160
     24 C         143.3049  141.2621  155.3888 C.3     1  UNL1        0.1177
     25 C         144.7686  141.5882  155.4276 C.ar    1  UNL1       -0.0009
     26 C         145.6284  141.3218  154.2277 C.ar    1  UNL1        0.0088
     27 C         147.0920  141.6479  154.2666 C.ar    1  UNL1        0.0583
     28 CL        147.9519  141.3816  153.0667 Cl      1  UNL1       -0.0822
     29 C         147.6958  142.2403  155.5054 C.ar    1  UNL1        0.0228
     30 C         146.8360  142.5066  156.7053 C.ar    1  UNL1        0.0583
     31 CL        147.4397  143.0990  157.9440 Cl      1  UNL1       -0.0822
     32 C         145.3724  142.1806  156.6664 C.ar    1  UNL1        0.0088
@<TRIPOS>BOND
     1     1     2    2
     2     2     3   am
     3     3    24    1
     4    24    25    1
     5    25    26   ar
     6    26    27   ar
     7    27    28    1
     8    27    29   ar
     9    29    30   ar
    10    30    31    1
    11    30    32   ar
    12     2     4   am
    13     4     6    1
    14     6     7   ar
    15     7     8   ar
    16     8     9   ar
    17     9    10    1
    18     9    11   ar
    19    11    12   ar
    20     4    13    1
    21    13    14    1
    22    14    15    1
    23    15    16    1
    24    16    19    1
    25    19    20    1
    26    20    21    1
    27    21    22    1
    28    22    23    1
    29    16    17    1
    30    17    18    1
    31    32    25   ar
    32    12     6   ar
    33    18    13    1
    34    23    19    1
    35     3     5    1
@<TRIPOS>MOLECULE
*****
 32 35 0 0 0
SMALL
GASTEIGER

@<TRIPOS>ATOM
      1 O         144.7433  142.7285  159.5056 O.2     1  UNL1       -0.2522
      2 C         144.1073  142.9437  158.1643 C.2     1  UNL1        0.3079
      3 N         144.9097  142.7430  156.9129 N.am    1  UNL1       -0.2844
      4 N         142.6689  143.3596  158.0743 N.am    1  UNL1       -0.2448
      5 H         144.4923  142.8843  156.0325 H       1  UNL1        0.1513
      6 C         142.0330  143.5748  156.7330 C.ar    1  UNL1        0.0552
      7 C         141.2472  142.4709  156.0897 C.ar    1  UNL1        0.0155
      8 C         140.6112  142.6861  154.7484 C.ar    1  UNL1        0.0080
      9 C         140.7610  144.0053  154.0503 C.ar    1  UNL1        0.0346
     10 BR        140.1250  144.2205  152.7090 Br      1  UNL1       -0.0490
     11 C         141.5468  145.1092  154.6936 C.ar    1  UNL1        0.0080
     12 C         142.1828  144.8940  156.0349 C.ar    1  UNL1        0.0155
     13 C         141.8666  143.5603  159.3257 C.3     1  UNL1        0.0840
     14 C         141.4084  144.9359  159.7103 C.3     1  UNL1        0.0376
     15 C         140.6060  145.1365  160.9617 C.3     1  UNL1        0.0738
     16 N         140.2618  143.9617  161.8284 N.3     1  UNL1       -0.2738
     17 C         140.7200  142.5862  161.4438 C.3     1  UNL1        0.0738
     18 C         141.5224  142.3854  160.1924 C.3     1  UNL1        0.0376
     19 C         139.4595  144.1624  163.0798 C.3     1  UNL1        0.0575
     20 C         137.9983  143.8675  163.2470 C.3     1  UNL1        0.0160
     21 C         137.6132  144.2161  164.6543 C.3     1  UNL1        0.0014
     22 C         138.8364  144.7263  165.3567 C.3     1  UNL1        0.0014
     23 C         139.9775  144.6931  164.3837 C.3     1  UNL1        0.0160
     24 C         146.3481  142.3271  157.0029 C.3     1  UNL1        0.1177
     25 C         147.2411  142.4510  155.8040 C.ar    1  UNL1       -0.0009
     26 C         148.6303  141.8866  155.8421 C.ar    1  UNL1        0.0088
     27 C         149.5232  142.0105  154.6432 C.ar    1  UNL1        0.0583
     28 CL        150.9125  141.4461  154.6812 Cl      1  UNL1       -0.0822
     29 C         149.0269  142.6987  153.4063 C.ar    1  UNL1        0.0228
     30 C         147.6377  143.2631  153.3682 C.ar    1  UNL1        0.0583
     31 CL        147.1414  143.9514  152.1313 Cl      1  UNL1       -0.0822
     32 C         146.7448  143.1392  154.5671 C.ar    1  UNL1        0.0088
@<TRIPOS>BOND
     1     1     2    2
     2     2     3   am
     3     3    24    1
     4    24    25    1
     5    25    26   ar
     6    26    27   ar
     7    27    28    1
     8    27    29   ar
     9    29    30   ar
    10    30    31    1
    11    30    32   ar
    12     2     4   am
    13     4     6    1
    14     6     7   ar
    15     7     8   ar
    16     8     9   ar
    17     9    10    1
    18     9    11   ar
    19    11    12   ar
    20     4    13    1
    21    13    14    1
    22    14    15    1
    23    15    16    1
    24    16    19    1
    25    19    20    1
    26    20    21    1
    27    21    22    1
    28    22    23    1
    29    16    17    1
    30    17    18    1
    31    32    25   ar
    32    12     6   ar
    33    18    13    1
    34    23    19    1
    35     3     5    1
@<TRIPOS>MOLECULE
*****
 32 35 0 0 0
SMALL
GASTEIGER

@<TRIPOS>ATOM
      1 O         141.5785  137.7804  163.0469 O.2     1  UNL1       -0.2522
      2 C         141.2786  139.2498  163.0773 C.2     1  UNL1        0.3079
      3 N         141.1910  139.9704  164.3900 N.am    1  UNL1       -0.2844
      4 N         141.0665  139.9987  161.7951 N.am    1  UNL1       -0.2448
      5 H         140.9941  140.9348  164.4100 H       1  UNL1        0.1513
      6 C         140.7666  141.4681  161.8255 C.ar    1  UNL1        0.0552
      7 C         141.8862  142.4637  161.7530 C.ar    1  UNL1        0.0155
      8 C         141.5863  143.9331  161.7834 C.ar    1  UNL1        0.0080
      9 C         140.1668  144.4069  161.8863 C.ar    1  UNL1        0.0346
     10 BR        139.8670  145.8763  161.9167 Br      1  UNL1       -0.0490
     11 C         139.0473  143.4113  161.9588 C.ar    1  UNL1        0.0080
     12 C         139.3471  141.9419  161.9284 C.ar    1  UNL1        0.0155
     13 C         141.1541  139.2781  160.4824 C.3     1  UNL1        0.0840
     14 C         142.4929  138.8915  159.9270 C.3     1  UNL1        0.0376
     15 C         142.5806  138.1709  158.6144 C.3     1  UNL1        0.0738
     16 N         141.3296  137.8370  157.8571 N.3     1  UNL1       -0.2738
     17 C         139.9909  138.2236  158.4124 C.3     1  UNL1        0.0738
     18 C         139.9032  138.9442  159.7251 C.3     1  UNL1        0.0376
     19 C         141.4173  137.1164  156.5445 C.3     1  UNL1        0.0575
     20 C         140.2711  136.8190  155.6236 C.3     1  UNL1        0.0160
     21 C         140.8120  136.0855  154.4322 C.3     1  UNL1        0.0014
     22 C         142.2925  135.9296  154.6167 C.3     1  UNL1        0.0014
     23 C         142.6665  136.5667  155.9221 C.3     1  UNL1        0.0160
     24 C         141.4032  139.2215  165.6723 C.3     1  UNL1        0.1177
     25 C         141.3210  139.9432  166.9847 C.ar    1  UNL1       -0.0009
     26 C         142.4828  140.7617  167.4646 C.ar    1  UNL1        0.0088
     27 C         142.4006  141.4834  168.7770 C.ar    1  UNL1        0.0583
     28 CL        143.5624  142.3019  169.2569 Cl      1  UNL1       -0.0822
     29 C         141.1566  141.3865  169.6095 C.ar    1  UNL1        0.0228
     30 C         139.9949  140.5679  169.1297 C.ar    1  UNL1        0.0583
     31 CL        138.7509  140.4710  169.9623 Cl      1  UNL1       -0.0822
     32 C         140.0771  139.8463  167.8173 C.ar    1  UNL1        0.0088
@<TRIPOS>BOND
     1     1     2    2
     2     2     3   am
     3     3    24    1
     4    24    25    1
     5    25    26   ar
     6    26    27   ar
     7    27    28    1
     8    27    29   ar
     9    29    30   ar
    10    30    31    1
    11    30    32   ar
    12     2     4   am
    13     4     6    1
    14     6     7   ar
    15     7     8   ar
    16     8     9   ar
    17     9    10    1
    18     9    11   ar
    19    11    12   ar
    20     4    13    1
    21    13    14    1
    22    14    15    1
    23    15    16    1
    24    16    19    1
    25    19    20    1
    26    20    21    1
    27    21    22    1
    28    22    23    1
    29    16    17    1
    30    17    18    1
    31    32    25   ar
    32    12     6   ar
    33    18    13    1
    34    23    19    1
    35     3     5    1
@<TRIPOS>MOLECULE
*****
 32 35 0 0 0
SMALL
GASTEIGER

@<TRIPOS>ATOM
      1 O         141.6147  137.7826  163.0731 O.2     1  UNL1       -0.2522
      2 C         141.3055  139.2501  163.1015 C.2     1  UNL1        0.3079
      3 N         141.2154  139.9723  164.4132 N.am    1  UNL1       -0.2844
      4 N         141.0862  139.9954  161.8184 N.am    1  UNL1       -0.2448
      5 H         141.0125  140.9355  164.4318 H       1  UNL1        0.1513
      6 C         140.7770  141.4629  161.8468 C.ar    1  UNL1        0.0552
      7 C         141.8883  142.4656  161.7490 C.ar    1  UNL1        0.0155
      8 C         141.5791  143.9331  161.7774 C.ar    1  UNL1        0.0080
      9 C         140.1586  144.3979  161.9037 C.ar    1  UNL1        0.0346
     10 BR        139.8493  145.8654  161.9321 Br      1  UNL1       -0.0490
     11 C         139.0473  143.3952  162.0015 C.ar    1  UNL1        0.0080
     12 C         139.3565  141.9277  161.9731 C.ar    1  UNL1        0.0155
     13 C         141.1763  139.2732  160.5068 C.3     1  UNL1        0.0840
     14 C         139.9348  139.0174  159.7047 C.3     1  UNL1        0.0376
     15 C         140.0248  138.2952  158.3931 C.3     1  UNL1        0.0738
     16 N         141.3563  137.8287  157.8836 N.3     1  UNL1       -0.2738
     17 C         142.5977  138.0844  158.6857 C.3     1  UNL1        0.0738
     18 C         142.5077  138.8066  159.9974 C.3     1  UNL1        0.0376
     19 C         141.4463  137.1065  156.5721 C.3     1  UNL1        0.0575
     20 C         142.7015  136.5873  155.9357 C.3     1  UNL1        0.0160
     21 C         142.3278  135.9365  154.6368 C.3     1  UNL1        0.0014
     22 C         140.8416  136.0535  154.4705 C.3     1  UNL1        0.0014
     23 C         140.2968  136.7765  155.6665 C.3     1  UNL1        0.0160
     24 C         141.4347  139.2271  165.6963 C.3     1  UNL1        0.1177
     25 C         141.3438  139.9491  167.0080 C.ar    1  UNL1       -0.0009
     26 C         140.0891  139.8643  167.8255 C.ar    1  UNL1        0.0088
     27 C         139.9983  140.5864  169.1371 C.ar    1  UNL1        0.0583
     28 CL        138.7435  140.5016  169.9546 Cl      1  UNL1       -0.0822
     29 C         141.1623  141.3932  169.6312 C.ar    1  UNL1        0.0228
     30 C         142.4170  141.4780  168.8137 C.ar    1  UNL1        0.0583
     31 CL        143.5810  142.2848  169.3079 Cl      1  UNL1       -0.0822
     32 C         142.5078  140.7559  167.5021 C.ar    1  UNL1        0.0088
@<TRIPOS>BOND
     1     1     2    2
     2     2     3   am
     3     3    24    1
     4    24    25    1
     5    25    26   ar
     6    26    27   ar
     7    27    28    1
     8    27    29   ar
     9    29    30   ar
    10    30    31    1
    11    30    32   ar
    12     2     4   am
    13     4     6    1
    14     6     7   ar
    15     7     8   ar
    16     8     9   ar
    17     9    10    1
    18     9    11   ar
    19    11    12   ar
    20     4    13    1
    21    13    14    1
    22    14    15    1
    23    15    16    1
    24    16    19    1
    25    19    20    1
    26    20    21    1
    27    21    22    1
    28    22    23    1
    29    16    17    1
    30    17    18    1
    31    32    25   ar
    32    12     6   ar
    33    18    13    1
    34    23    19    1
    35     3     5    1
@<TRIPOS>MOLECULE
*****
 32 35 0 0 0
SMALL
GASTEIGER

@<TRIPOS>ATOM
      1 O         140.2420  137.4622  161.9031 O.2     1  UNL1       -0.2522
      2 C         140.2461  138.9558  161.7651 C.2     1  UNL1        0.3079
      3 N         139.9261  139.8193  162.9493 N.am    1  UNL1       -0.2844
      4 N         140.5703  139.5861  160.4432 N.am    1  UNL1       -0.2448
      5 H         139.9288  140.7996  162.8588 H       1  UNL1        0.1513
      6 C         140.5743  141.0797  160.3052 C.ar    1  UNL1        0.0552
      7 C         141.8069  141.8615  160.6511 C.ar    1  UNL1        0.0155
      8 C         141.8110  143.3551  160.5132 C.ar    1  UNL1        0.0080
      9 C         140.5825  144.0670  160.0294 C.ar    1  UNL1        0.0346
     10 BR        140.5866  145.5606  159.8915 Br      1  UNL1       -0.0490
     11 C         139.3500  143.2853  159.6835 C.ar    1  UNL1        0.0080
     12 C         139.3459  141.7916  159.8214 C.ar    1  UNL1        0.0155
     13 C         140.8903  138.7227  159.2591 C.3     1  UNL1        0.0840
     14 C         139.8181  138.3839  158.2662 C.3     1  UNL1        0.0376
     15 C         140.1381  137.5205  157.0821 C.3     1  UNL1        0.0738
     16 N         141.5303  136.9958  156.8909 N.3     1  UNL1       -0.2738
     17 C         142.6024  137.3346  157.8837 C.3     1  UNL1        0.0738
     18 C         142.2824  138.1980  159.0678 C.3     1  UNL1        0.0376
     19 C         141.8503  136.1324  155.7068 C.3     1  UNL1        0.0575
     20 C         141.6213  136.4891  154.2679 C.3     1  UNL1        0.0160
     21 C         142.0850  135.3378  153.4255 C.3     1  UNL1        0.0014
     22 C         142.6006  134.2696  154.3438 C.3     1  UNL1        0.0014
     23 C         142.4556  134.7607  155.7536 C.3     1  UNL1        0.0160
     24 C         139.6020  139.1890  164.2713 C.3     1  UNL1        0.1177
     25 C         140.5617  139.3143  165.4173 C.ar    1  UNL1       -0.0009
     26 C         140.2100  140.1668  166.6003 C.ar    1  UNL1        0.0088
     27 C         141.1697  140.2920  167.7463 C.ar    1  UNL1        0.0583
     28 CL        140.8181  141.1446  168.9293 Cl      1  UNL1       -0.0822
     29 C         142.4811  139.5647  167.7092 C.ar    1  UNL1        0.0228
     30 C         142.8328  138.7122  166.5262 C.ar    1  UNL1        0.0583
     31 CL        144.1441  137.9849  166.4892 Cl      1  UNL1       -0.0822
     32 C         141.8731  138.5870  165.3803 C.ar    1  UNL1        0.0088
@<TRIPOS>BOND
     1     1     2    2
     2     2     3   am
     3     3    24    1
     4    24    25    1
     5    25    26   ar
     6    26    27   ar
     7    27    28    1
     8    27    29   ar
     9    29    30   ar
    10    30    31    1
    11    30    32   ar
    12     2     4   am
    13     4     6    1
    14     6     7   ar
    15     7     8   ar
    16     8     9   ar
    17     9    10    1
    18     9    11   ar
    19    11    12   ar
    20     4    13    1
    21    13    14    1
    22    14    15    1
    23    15    16    1
    24    16    19    1
    25    19    20    1
    26    20    21    1
    27    21    22    1
    28    22    23    1
    29    16    17    1
    30    17    18    1
    31    32    25   ar
    32    12     6   ar
    33    18    13    1
    34    23    19    1
    35     3     5    1
@<TRIPOS>MOLECULE
*****
 32 35 0 0 0
SMALL
GASTEIGER

@<TRIPOS>ATOM
      1 O         138.5143  143.5990  160.7096 O.2     1  UNL1       -0.2522
      2 C         139.0327  142.3028  160.1609 C.2     1  UNL1        0.3079
      3 N         139.0124  141.0669  161.0109 N.am    1  UNL1       -0.2844
      4 N         139.5713  142.2423  158.7623 N.am    1  UNL1       -0.2448
      5 H         139.3527  140.2162  160.6508 H       1  UNL1        0.1513
      6 C         140.0897  140.9461  158.2136 C.ar    1  UNL1        0.0552
      7 C         139.1432  139.9635  157.5903 C.ar    1  UNL1        0.0155
      8 C         139.6615  138.6673  157.0416 C.ar    1  UNL1        0.0080
      9 C         141.1265  138.3536  157.1162 C.ar    1  UNL1        0.0346
     10 BR        141.6448  137.0574  156.5675 Br      1  UNL1       -0.0490
     11 C         142.0730  139.3362  157.7395 C.ar    1  UNL1        0.0080
     12 C         141.5546  140.6324  158.2882 C.ar    1  UNL1        0.0155
     13 C         139.5915  143.4781  157.9124 C.3     1  UNL1        0.0840
     14 C         138.7501  143.5496  156.6726 C.3     1  UNL1        0.0376
     15 C         138.7703  144.7854  155.8227 C.3     1  UNL1        0.0738
     16 N         139.6320  145.9497  156.2124 N.3     1  UNL1       -0.2738
     17 C         140.4734  145.8782  157.4521 C.3     1  UNL1        0.0738
     18 C         140.4532  144.6424  158.3021 C.3     1  UNL1        0.0376
     19 C         139.6522  147.1854  155.3625 C.3     1  UNL1        0.0575
     20 C         138.9339  148.4692  155.6559 C.3     1  UNL1        0.0160
     21 C         139.2321  149.4317  154.5446 C.3     1  UNL1        0.0014
     22 C         140.1347  148.7427  153.5644 C.3     1  UNL1        0.0014
     23 C         140.3943  147.3545  154.0699 C.3     1  UNL1        0.0160
     24 C         138.4738  141.1274  162.4095 C.3     1  UNL1        0.1177
     25 C         138.7805  140.0251  163.3797 C.ar    1  UNL1       -0.0009
     26 C         138.0689  139.9675  164.6988 C.ar    1  UNL1        0.0088
     27 C         138.3755  138.8653  165.6689 C.ar    1  UNL1        0.0583
     28 CL        137.6639  138.8077  166.9881 Cl      1  UNL1       -0.0822
     29 C         139.3938  137.8207  165.3197 C.ar    1  UNL1        0.0228
     30 C         140.1054  137.8783  164.0006 C.ar    1  UNL1        0.0583
     31 CL        141.1237  136.8337  163.6514 Cl      1  UNL1       -0.0822
     32 C         139.7987  138.9805  163.0305 C.ar    1  UNL1        0.0088
@<TRIPOS>BOND
     1     1     2    2
     2     2     3   am
     3     3    24    1
     4    24    25    1
     5    25    26   ar
     6    26    27   ar
     7    27    28    1
     8    27    29   ar
     9    29    30   ar
    10    30    31    1
    11    30    32   ar
    12     2     4   am
    13     4     6    1
    14     6     7   ar
    15     7     8   ar
    16     8     9   ar
    17     9    10    1
    18     9    11   ar
    19    11    12   ar
    20     4    13    1
    21    13    14    1
    22    14    15    1
    23    15    16    1
    24    16    19    1
    25    19    20    1
    26    20    21    1
    27    21    22    1
    28    22    23    1
    29    16    17    1
    30    17    18    1
    31    32    25   ar
    32    12     6   ar
    33    18    13    1
    34    23    19    1
    35     3     5    1
@<TRIPOS>MOLECULE
*****
 32 35 0 0 0
SMALL
GASTEIGER

@<TRIPOS>ATOM
      1 O         143.5386  140.9816  159.7563 O.2     1  UNL1       -0.2522
      2 C         143.2982  139.9327  158.7113 C.2     1  UNL1        0.3079
      3 N         144.0575  139.9743  157.4183 N.am    1  UNL1       -0.2844
      4 N         142.2985  138.8423  158.9592 N.am    1  UNL1       -0.2448
      5 H         143.8998  139.2859  156.7324 H       1  UNL1        0.1513
      6 C         142.0581  137.7934  157.9142 C.ar    1  UNL1        0.0552
      7 C         140.8635  137.8930  157.0125 C.ar    1  UNL1        0.0155
      8 C         140.6231  136.8441  155.9675 C.ar    1  UNL1        0.0080
      9 C         141.5773  135.6957  155.8241 C.ar    1  UNL1        0.0346
     10 BR        141.3369  134.6468  154.7791 Br      1  UNL1       -0.0490
     11 C         142.7719  135.5961  156.7258 C.ar    1  UNL1        0.0080
     12 C         143.0123  136.6450  157.7708 C.ar    1  UNL1        0.0155
     13 C         141.5392  138.8007  160.2521 C.3     1  UNL1        0.0840
     14 C         142.0042  137.9111  161.3668 C.3     1  UNL1        0.0376
     15 C         141.2449  137.8696  162.6597 C.3     1  UNL1        0.0738
     16 N         140.0205  138.7176  162.8380 N.3     1  UNL1       -0.2738
     17 C         139.5555  139.6072  161.7234 C.3     1  UNL1        0.0738
     18 C         140.3148  139.6488  160.4304 C.3     1  UNL1        0.0376
     19 C         139.2612  138.6760  164.1309 C.3     1  UNL1        0.0575
     20 C         139.0088  137.4561  164.9664 C.3     1  UNL1        0.0160
     21 C         138.2125  137.8732  166.1673 C.3     1  UNL1        0.0014
     22 C         137.9729  139.3511  166.0740 C.3     1  UNL1        0.0014
     23 C         138.6209  139.8472  164.8155 C.3     1  UNL1        0.0160
     24 C         145.0572  141.0648  157.1704 C.3     1  UNL1        0.1177
     25 C         145.6957  141.2042  155.8202 C.ar    1  UNL1       -0.0009
     26 C         147.1157  141.6739  155.7070 C.ar    1  UNL1        0.0088
     27 C         147.7541  141.8133  154.3568 C.ar    1  UNL1        0.0583
     28 CL        149.1742  142.2831  154.2435 Cl      1  UNL1       -0.0822
     29 C         146.9725  141.4830  153.1199 C.ar    1  UNL1        0.0228
     30 C         145.5525  141.0133  153.2331 C.ar    1  UNL1        0.0583
     31 CL        144.7709  140.6830  151.9962 Cl      1  UNL1       -0.0822
     32 C         144.9141  140.8739  154.5833 C.ar    1  UNL1        0.0088
@<TRIPOS>BOND
     1     1     2    2
     2     2     3   am
     3     3    24    1
     4    24    25    1
     5    25    26   ar
     6    26    27   ar
     7    27    28    1
     8    27    29   ar
     9    29    30   ar
    10    30    31    1
    11    30    32   ar
    12     2     4   am
    13     4     6    1
    14     6     7   ar
    15     7     8   ar
    16     8     9   ar
    17     9    10    1
    18     9    11   ar
    19    11    12   ar
    20     4    13    1
    21    13    14    1
    22    14    15    1
    23    15    16    1
    24    16    19    1
    25    19    20    1
    26    20    21    1
    27    21    22    1
    28    22    23    1
    29    16    17    1
    30    17    18    1
    31    32    25   ar
    32    12     6   ar
    33    18    13    1
    34    23    19    1
    35     3     5    1
@<TRIPOS>MOLECULE
*****
 32 35 0 0 0
SMALL
GASTEIGER

@<TRIPOS>ATOM
      1 O         140.7020  145.0158  162.2556 O.2     1  UNL1       -0.2522
      2 C         141.0655  143.8559  161.3767 C.2     1  UNL1        0.3079
      3 N         141.3155  144.0731  159.9136 N.am    1  UNL1       -0.2844
      4 N         141.1790  142.4790  161.9607 N.am    1  UNL1       -0.2448
      5 H         141.5540  143.3118  159.3367 H       1  UNL1        0.1513
      6 C         141.5425  141.3191  161.0817 C.ar    1  UNL1        0.0552
      7 C         142.9834  140.9564  160.8764 C.ar    1  UNL1        0.0155
      8 C         143.3469  139.7965  159.9974 C.ar    1  UNL1        0.0080
      9 C         142.2695  138.9994  159.3238 C.ar    1  UNL1        0.0346
     10 BR        142.6330  137.8395  158.4449 Br      1  UNL1       -0.0490
     11 C         140.8286  139.3621  159.5292 C.ar    1  UNL1        0.0080
     12 C         140.4651  140.5220  160.4081 C.ar    1  UNL1        0.0155
     13 C         140.9290  142.2619  163.4237 C.3     1  UNL1        0.0840
     14 C         139.5319  142.0346  163.9202 C.3     1  UNL1        0.0376
     15 C         139.2819  141.8175  165.3832 C.3     1  UNL1        0.0738
     16 N         140.4290  141.8278  166.3497 N.3     1  UNL1       -0.2738
     17 C         141.8260  142.0551  165.8532 C.3     1  UNL1        0.0738
     18 C         142.0761  142.2722  164.3902 C.3     1  UNL1        0.0376
     19 C         140.1790  141.6107  167.8127 C.3     1  UNL1        0.0575
     20 C         140.4121  142.6120  168.9050 C.3     1  UNL1        0.0160
     21 C         140.0291  141.9743  170.2077 C.3     1  UNL1        0.0014
     22 C         139.5594  140.5790  169.9204 C.3     1  UNL1        0.0014
     23 C         139.6520  140.3543  168.4402 C.3     1  UNL1        0.0160
     24 C         141.2019  145.4500  159.3296 C.3     1  UNL1        0.1177
     25 C         141.1221  145.6297  157.8425 C.ar    1  UNL1       -0.0009
     26 C         142.1943  145.0630  156.9599 C.ar    1  UNL1        0.0088
     27 C         142.1144  145.2427  155.4729 C.ar    1  UNL1        0.0583
     28 CL        143.1867  144.6760  154.5902 Cl      1  UNL1       -0.0822
     29 C         140.9623  145.9892  154.8685 C.ar    1  UNL1        0.0228
     30 C         139.8900  146.5559  155.7511 C.ar    1  UNL1        0.0583
     31 CL        138.7379  147.3024  155.1467 Cl      1  UNL1       -0.0822
     32 C         139.9699  146.3762  157.2381 C.ar    1  UNL1        0.0088
@<TRIPOS>BOND
     1     1     2    2
     2     2     3   am
     3     3    24    1
     4    24    25    1
     5    25    26   ar
     6    26    27   ar
     7    27    28    1
     8    27    29   ar
     9    29    30   ar
    10    30    31    1
    11    30    32   ar
    12     2     4   am
    13     4     6    1
    14     6     7   ar
    15     7     8   ar
    16     8     9   ar
    17     9    10    1
    18     9    11   ar
    19    11    12   ar
    20     4    13    1
    21    13    14    1
    22    14    15    1
    23    15    16    1
    24    16    19    1
    25    19    20    1
    26    20    21    1
    27    21    22    1
    28    22    23    1
    29    16    17    1
    30    17    18    1
    31    32    25   ar
    32    12     6   ar
    33    18    13    1
    34    23    19    1
    35     3     5    1
