@<TRIPOS>MOLECULE
*****
 38 42 0 0 0
SMALL
GASTEIGER

@<TRIPOS>ATOM
      1 O         142.6234  144.9529  158.0201 O.2     1  UNL1       -0.2733
      2 C         141.3044  145.1915  157.3469 C.2     1  UNL1        0.2426
      3 N         140.0296  145.0569  158.1258 N.am    1  UNL1       -0.3018
      4 H         139.1638  145.2135  157.6839 H       1  UNL1        0.1495
      5 C         140.0738  144.6838  159.5780 C.3     1  UNL1        0.1035
      6 C         140.4706  145.3871  160.8421 C.3     1  UNL1        0.0933
      7 N         140.1365  144.1563  161.6317 N.3     1  UNL1       -0.2711
      8 C         139.7398  143.4531  160.3676 C.3     1  UNL1        0.0933
      9 C         140.1808  143.7833  163.0839 C.3     1  UNL1        0.0576
     10 C         141.3251  142.9718  163.6151 C.3     1  UNL1        0.0163
     11 C         141.3694  142.5987  165.0673 C.3     1  UNL1        0.0057
     12 C         140.2695  143.0370  165.9882 C.3     1  UNL1        0.0225
     13 C         139.1253  143.8485  165.4570 C.3     1  UNL1        0.0057
     14 C         139.0809  144.2216  164.0048 C.3     1  UNL1        0.0163
     15 C         140.3139  142.6639  167.4405 C.ar    1  UNL1       -0.0193
     16 C         140.3662  143.7353  168.4888 C.ar    1  UNL1       -0.0010
     17 C         140.4105  143.3622  169.9410 C.ar    1  UNL1        0.0399
     18 C         140.4026  141.9176  170.3448 C.ar    1  UNL1        0.1764
     19 C         140.3503  140.8461  169.2964 C.ar    1  UNL1        0.1761
     20 C         140.3060  141.2192  167.8442 C.ar    1  UNL1        0.0359
     21 O         140.3541  139.5169  169.9914 O.3     1  UNL1       -0.4346
     22 C         140.4088  139.7669  171.4694 C.3     1  UNL1        0.4294
     23 O         140.4387  141.2506  171.6878 O.3     1  UNL1       -0.4346
     24 C         141.2602  145.5646  155.8946 C.3     1  UNL1        0.1759
     25 N         140.9869  146.9837  155.4928 N.am    1  UNL1       -0.2931
     26 C         139.5730  147.4692  155.3696 C.2     1  UNL1        0.2462
     27 O         138.4325  146.5356  155.6482 O.2     1  UNL1       -0.2701
     28 H         141.7355  147.5964  155.3100 H       1  UNL1        0.1502
     29 C         139.2997  148.8883  154.9679 C.ar    1  UNL1        0.0534
     30 C         139.7325  149.3826  153.6194 C.ar    1  UNL1        0.0045
     31 C         139.4591  150.8018  153.2177 C.ar    1  UNL1        0.0040
     32 C         138.7531  151.7266  154.1644 C.ar    1  UNL1        0.0714
     33 C         138.3204  151.2323  155.5128 C.ar    1  UNL1        0.0040
     34 C         138.5937  149.8131  155.9146 C.ar    1  UNL1        0.0045
     35 C         138.4798  153.1457  153.7626 C.3     1  UNL1        0.4186
     36 F         138.2065  154.5648  153.3608 F       1  UNL1       -0.1659
     37 F         138.5350  153.5639  155.2021 F       1  UNL1       -0.1659
     38 F         138.4247  152.7275  152.3231 F       1  UNL1       -0.1659
@<TRIPOS>BOND
     1     1     2    2
     2     2    24    1
     3    24    25    1
     4    25    26   am
     5    26    27    2
     6    26    29    1
     7    29    30   ar
     8    30    31   ar
     9    31    32   ar
    10    32    35    1
    11    35    36    1
    12    35    37    1
    13    35    38    1
    14    32    33   ar
    15    33    34   ar
    16     2     3   am
    17     3     5    1
    18     5     6    1
    19     6     7    1
    20     9     7    1
    21     9    10    1
    22    10    11    1
    23    11    12    1
    24    12    15    1
    25    15    16   ar
    26    16    17   ar
    27    17    18   ar
    28    18    19   ar
    29    19    20   ar
    30    19    21    1
    31    21    22    1
    32    22    23    1
    33    12    13    1
    34    13    14    1
    35     7     8    1
    36    34    29   ar
    37     8     5    1
    38    14     9    1
    39    20    15   ar
    40    23    18    1
    41    25    28    1
    42     3     4    1
@<TRIPOS>MOLECULE
*****
 38 42 0 0 0
SMALL
GASTEIGER

@<TRIPOS>ATOM
      1 O         143.9704  139.2797  156.8461 O.2     1  UNL1       -0.2733
      2 C         143.3297  137.9435  156.6135 C.2     1  UNL1        0.2426
      3 N         142.5737  137.2713  157.7210 N.am    1  UNL1       -0.3018
      4 H         142.1532  136.3943  157.5684 H       1  UNL1        0.1495
      5 C         142.4583  137.9354  159.0610 C.3     1  UNL1        0.1035
      6 C         143.1717  137.8054  160.3741 C.3     1  UNL1        0.0933
      7 N         142.2953  138.8745  160.9562 N.3     1  UNL1       -0.2711
      8 C         141.5820  139.0045  159.6431 C.3     1  UNL1        0.0933
      9 C         142.1800  139.5386  162.2962 C.3     1  UNL1        0.0576
     10 C         143.0101  140.7486  162.6074 C.3     1  UNL1        0.0163
     11 C         142.8948  141.4127  163.9474 C.3     1  UNL1        0.0057
     12 C         141.9494  140.8669  164.9761 C.3     1  UNL1        0.0225
     13 C         141.1193  139.6570  164.6649 C.3     1  UNL1        0.0057
     14 C         141.2345  138.9928  163.3249 C.3     1  UNL1        0.0163
     15 C         141.8341  141.5311  166.3162 C.ar    1  UNL1       -0.0193
     16 C         140.5058  142.0446  166.7870 C.ar    1  UNL1       -0.0010
     17 C         140.3905  142.7087  168.1270 C.ar    1  UNL1        0.0399
     18 C         141.6036  142.8594  168.9962 C.ar    1  UNL1        0.1764
     19 C         142.9320  142.3459  168.5254 C.ar    1  UNL1        0.1761
     20 C         143.0473  141.6818  167.1855 C.ar    1  UNL1        0.0359
     21 O         143.9454  142.6347  169.5930 O.3     1  UNL1       -0.4346
     22 C         143.2432  143.3266  170.7236 C.3     1  UNL1        0.4294
     23 O         141.7959  143.4655  170.3547 O.3     1  UNL1       -0.4346
     24 C         143.4451  137.2794  155.2734 C.3     1  UNL1        0.1759
     25 N         143.9442  135.8682  155.1762 N.am    1  UNL1       -0.2931
     26 C         143.0050  134.7227  155.4119 C.2     1  UNL1        0.2462
     27 O         141.5667  134.9883  155.7448 O.2     1  UNL1       -0.2701
     28 H         144.8882  135.6939  154.9576 H       1  UNL1        0.1502
     29 C         143.5041  133.3115  155.3147 C.ar    1  UNL1        0.0534
     30 C         144.4900  132.7937  156.3196 C.ar    1  UNL1        0.0045
     31 C         144.9890  131.3825  156.2223 C.ar    1  UNL1        0.0040
     32 C         144.5022  130.4891  155.1201 C.ar    1  UNL1        0.0714
     33 C         143.5163  131.0068  154.1152 C.ar    1  UNL1        0.0040
     34 C         143.0172  132.4180  154.2124 C.ar    1  UNL1        0.0045
     35 C         145.0013  129.0779  155.0229 C.3     1  UNL1        0.4186
     36 F         145.5004  127.6667  154.9256 F       1  UNL1       -0.1659
     37 F         144.8250  128.9135  156.5034 F       1  UNL1       -0.1659
     38 F         145.1776  129.2422  153.5423 F       1  UNL1       -0.1659
@<TRIPOS>BOND
     1     1     2    2
     2     2    24    1
     3    24    25    1
     4    25    26   am
     5    26    27    2
     6    26    29    1
     7    29    30   ar
     8    30    31   ar
     9    31    32   ar
    10    32    35    1
    11    35    36    1
    12    35    37    1
    13    35    38    1
    14    32    33   ar
    15    33    34   ar
    16     2     3   am
    17     3     5    1
    18     5     6    1
    19     6     7    1
    20     9     7    1
    21     9    10    1
    22    10    11    1
    23    11    12    1
    24    12    15    1
    25    15    16   ar
    26    16    17   ar
    27    17    18   ar
    28    18    19   ar
    29    19    20   ar
    30    19    21    1
    31    21    22    1
    32    22    23    1
    33    12    13    1
    34    13    14    1
    35     7     8    1
    36    34    29   ar
    37     8     5    1
    38    14     9    1
    39    20    15   ar
    40    23    18    1
    41    25    28    1
    42     3     4    1
@<TRIPOS>MOLECULE
*****
 38 42 0 0 0
SMALL
GASTEIGER

@<TRIPOS>ATOM
      1 O         142.0144  137.4763  160.9530 O.2     1  UNL1       -0.2733
      2 C         140.8465  138.4024  161.1210 C.2     1  UNL1        0.2426
      3 N         140.8381  139.7324  160.4273 N.am    1  UNL1       -0.3018
      4 H         140.0716  140.3403  160.5376 H       1  UNL1        0.1495
      5 C         141.9976  140.1361  159.5657 C.3     1  UNL1        0.1035
      6 C         142.1476  140.6779  158.1750 C.3     1  UNL1        0.0933
      7 N         143.6374  140.7071  158.3469 N.3     1  UNL1       -0.2711
      8 C         143.4874  140.1653  159.7376 C.3     1  UNL1        0.0933
      9 C         144.7969  141.1108  157.4853 C.3     1  UNL1        0.0576
     10 C         145.1260  140.3215  156.2529 C.3     1  UNL1        0.0163
     11 C         146.2855  140.7251  155.3912 C.3     1  UNL1        0.0057
     12 C         147.1159  141.9181  155.7618 C.3     1  UNL1        0.0225
     13 C         146.7867  142.7074  156.9941 C.3     1  UNL1        0.0057
     14 C         145.6272  142.3038  157.8559 C.3     1  UNL1        0.0163
     15 C         148.2755  142.3218  154.9000 C.ar    1  UNL1       -0.0193
     16 C         148.0662  143.2707  153.7575 C.ar    1  UNL1       -0.0010
     17 C         149.2257  143.6744  152.8957 C.ar    1  UNL1        0.0399
     18 C         150.5945  143.1290  153.1766 C.ar    1  UNL1        0.1764
     19 C         150.8038  142.1800  154.3192 C.ar    1  UNL1        0.1761
     20 C         149.6443  141.7764  155.1810 C.ar    1  UNL1        0.0359
     21 O         152.2568  141.8090  154.3534 O.3     1  UNL1       -0.4346
     22 C         152.9454  142.5286  153.2319 C.3     1  UNL1        0.4294
     23 O         151.9181  143.3445  152.5046 O.3     1  UNL1       -0.4346
     24 C         139.6869  137.9986  161.9827 C.3     1  UNL1        0.1759
     25 N         139.7684  138.1571  163.4721 N.am    1  UNL1       -0.2931
     26 C         139.7920  139.5281  164.0802 C.2     1  UNL1        0.2462
     27 O         139.7342  140.7406  163.1990 O.2     1  UNL1       -0.2701
     28 H         139.8063  137.3614  164.0505 H       1  UNL1        0.1502
     29 C         139.8734  139.6866  165.5696 C.ar    1  UNL1        0.0534
     30 C         141.1587  140.1225  166.2083 C.ar    1  UNL1        0.0045
     31 C         141.2401  140.2810  167.6977 C.ar    1  UNL1        0.0040
     32 C         140.0362  140.0036  168.5484 C.ar    1  UNL1        0.0714
     33 C         138.7508  139.5677  167.9097 C.ar    1  UNL1        0.0040
     34 C         138.6694  139.4092  166.4203 C.ar    1  UNL1        0.0045
     35 C         140.1176  140.1621  170.0378 C.3     1  UNL1        0.4186
     36 F         140.1990  140.3206  171.5271 F       1  UNL1       -0.1659
     37 F         139.0041  141.1662  169.9918 F       1  UNL1       -0.1659
     38 F         141.2310  139.1580  170.0837 F       1  UNL1       -0.1659
@<TRIPOS>BOND
     1     1     2    2
     2     2    24    1
     3    24    25    1
     4    25    26   am
     5    26    27    2
     6    26    29    1
     7    29    30   ar
     8    30    31   ar
     9    31    32   ar
    10    32    35    1
    11    35    36    1
    12    35    37    1
    13    35    38    1
    14    32    33   ar
    15    33    34   ar
    16     2     3   am
    17     3     5    1
    18     5     6    1
    19     6     7    1
    20     9     7    1
    21     9    10    1
    22    10    11    1
    23    11    12    1
    24    12    15    1
    25    15    16   ar
    26    16    17   ar
    27    17    18   ar
    28    18    19   ar
    29    19    20   ar
    30    19    21    1
    31    21    22    1
    32    22    23    1
    33    12    13    1
    34    13    14    1
    35     7     8    1
    36    34    29   ar
    37     8     5    1
    38    14     9    1
    39    20    15   ar
    40    23    18    1
    41    25    28    1
    42     3     4    1
@<TRIPOS>MOLECULE
*****
 38 42 0 0 0
SMALL
GASTEIGER

@<TRIPOS>ATOM
      1 O         140.6443  138.3199  157.3024 O.2     1  UNL1       -0.2733
      2 C         141.9301  137.6316  156.9517 C.2     1  UNL1        0.2426
      3 N         143.0477  137.5757  157.9507 N.am    1  UNL1       -0.3018
      4 H         143.8916  137.1239  157.7205 H       1  UNL1        0.1495
      5 C         142.8794  138.2081  159.3004 C.3     1  UNL1        0.1035
      6 C         141.9380  138.0151  160.4522 C.3     1  UNL1        0.0933
      7 N         142.6412  139.1024  161.2092 N.3     1  UNL1       -0.2711
      8 C         143.5826  139.2954  160.0574 C.3     1  UNL1        0.0933
      9 C         142.4729  139.7349  162.5589 C.3     1  UNL1        0.0576
     10 C         143.0453  139.0697  163.7754 C.3     1  UNL1        0.0163
     11 C         142.8771  139.7020  165.1251 C.3     1  UNL1        0.0057
     12 C         142.1364  140.9996  165.2583 C.3     1  UNL1        0.0225
     13 C         141.5639  141.6648  164.0418 C.3     1  UNL1        0.0057
     14 C         141.7322  141.0324  162.6921 C.3     1  UNL1        0.0163
     15 C         141.9681  141.6320  166.6081 C.ar    1  UNL1       -0.0193
     16 C         140.5999  142.0068  167.0954 C.ar    1  UNL1       -0.0010
     17 C         140.4317  142.6391  168.4452 C.ar    1  UNL1        0.0399
     18 C         141.6316  142.8967  169.3076 C.ar    1  UNL1        0.1764
     19 C         142.9998  142.5219  168.8203 C.ar    1  UNL1        0.1761
     20 C         143.1681  141.8896  167.4705 C.ar    1  UNL1        0.0359
     21 O         143.9892  142.8948  169.8843 O.3     1  UNL1       -0.4346
     22 C         143.2323  143.5000  171.0293 C.3     1  UNL1        0.4294
     23 O         141.7753  143.5012  170.6728 O.3     1  UNL1       -0.4346
     24 C         142.0984  136.9991  155.6019 C.3     1  UNL1        0.1759
     25 N         141.7433  135.5557  155.4005 N.am    1  UNL1       -0.2931
     26 C         142.6190  134.4811  155.9734 C.2     1  UNL1        0.2462
     27 O         143.8496  134.8497  156.7478 O.2     1  UNL1       -0.2701
     28 H         140.9357  135.3137  154.8922 H       1  UNL1        0.1502
     29 C         142.2639  133.0377  155.7720 C.ar    1  UNL1        0.0534
     30 C         143.0531  131.9673  156.4659 C.ar    1  UNL1        0.0045
     31 C         142.6980  130.5239  156.2644 C.ar    1  UNL1        0.0040
     32 C         141.5538  130.1509  155.3690 C.ar    1  UNL1        0.0714
     33 C         140.7647  131.2212  154.6751 C.ar    1  UNL1        0.0040
     34 C         141.1197  132.6646  154.8765 C.ar    1  UNL1        0.0045
     35 C         141.1988  128.7075  155.1676 C.3     1  UNL1        0.4186
     36 F         140.8438  127.2641  154.9662 F       1  UNL1       -0.1659
     37 F         139.7531  129.0301  155.4041 F       1  UNL1       -0.1659
     38 F         142.6445  128.3849  154.9311 F       1  UNL1       -0.1659
@<TRIPOS>BOND
     1     1     2    2
     2     2    24    1
     3    24    25    1
     4    25    26   am
     5    26    27    2
     6    26    29    1
     7    29    30   ar
     8    30    31   ar
     9    31    32   ar
    10    32    35    1
    11    35    36    1
    12    35    37    1
    13    35    38    1
    14    32    33   ar
    15    33    34   ar
    16     2     3   am
    17     3     5    1
    18     5     6    1
    19     6     7    1
    20     9     7    1
    21     9    10    1
    22    10    11    1
    23    11    12    1
    24    12    15    1
    25    15    16   ar
    26    16    17   ar
    27    17    18   ar
    28    18    19   ar
    29    19    20   ar
    30    19    21    1
    31    21    22    1
    32    22    23    1
    33    12    13    1
    34    13    14    1
    35     7     8    1
    36    34    29   ar
    37     8     5    1
    38    14     9    1
    39    20    15   ar
    40    23    18    1
    41    25    28    1
    42     3     4    1
@<TRIPOS>MOLECULE
*****
 38 42 0 0 0
SMALL
GASTEIGER

@<TRIPOS>ATOM
      1 O         141.6028  140.2414  161.4965 O.2     1  UNL1       -0.2733
      2 C         142.8489  141.0298  161.2215 C.2     1  UNL1        0.2426
      3 N         143.7338  140.6563  160.0694 N.am    1  UNL1       -0.3018
      4 H         144.5517  141.1737  159.8889 H       1  UNL1        0.1495
      5 C         143.3726  139.4942  159.1924 C.3     1  UNL1        0.1035
      6 C         142.9406  138.0780  159.4327 C.3     1  UNL1        0.0933
      7 N         142.8618  137.8508  157.9521 N.3     1  UNL1       -0.2711
      8 C         143.2938  139.2670  157.7118 C.3     1  UNL1        0.0933
      9 C         142.5006  136.6888  157.0751 C.3     1  UNL1        0.0576
     10 C         143.3303  135.4395  157.1060 C.3     1  UNL1        0.0163
     11 C         142.9692  134.2775  156.2290 C.3     1  UNL1        0.0057
     12 C         141.7783  134.3646  155.3211 C.3     1  UNL1        0.0225
     13 C         140.9486  135.6139  155.2903 C.3     1  UNL1        0.0057
     14 C         141.3097  136.7759  156.1673 C.3     1  UNL1        0.0163
     15 C         141.4171  133.2025  154.4441 C.ar    1  UNL1       -0.0193
     16 C         141.6002  133.2987  152.9585 C.ar    1  UNL1       -0.0010
     17 C         141.2390  132.1367  152.0815 C.ar    1  UNL1        0.0399
     18 C         140.6948  130.8783  152.6901 C.ar    1  UNL1        0.1764
     19 C         140.5118  130.7821  154.1758 C.ar    1  UNL1        0.1761
     20 C         140.8729  131.9441  155.0528 C.ar    1  UNL1        0.0359
     21 O         139.9581  129.4233  154.4876 O.3     1  UNL1       -0.4346
     22 C         139.7990  128.6798  153.1946 C.3     1  UNL1        0.4294
     23 O         140.2543  129.5790  152.0837 O.3     1  UNL1       -0.4346
     24 C         143.2100  142.1919  162.0986 C.3     1  UNL1        0.1759
     25 N         142.4685  142.4218  163.3821 N.am    1  UNL1       -0.2931
     26 C         143.1095  142.0703  164.6918 C.2     1  UNL1        0.2462
     27 O         144.4921  141.4889  164.7182 O.2     1  UNL1       -0.2701
     28 H         141.5611  142.8033  163.3649 H       1  UNL1        0.1502
     29 C         142.3680  142.3001  165.9753 C.ar    1  UNL1        0.0534
     30 C         140.9178  142.6824  165.9456 C.ar    1  UNL1        0.0045
     31 C         140.1764  142.9122  167.2291 C.ar    1  UNL1        0.0040
     32 C         140.8850  142.7598  168.5423 C.ar    1  UNL1        0.0714
     33 C         142.3351  142.3775  168.5721 C.ar    1  UNL1        0.0040
     34 C         143.0767  142.1477  167.2886 C.ar    1  UNL1        0.0045
     35 C         140.1434  142.9896  169.8258 C.3     1  UNL1        0.4186
     36 F         139.4019  143.2194  171.1093 F       1  UNL1       -0.1659
     37 F         139.4796  141.6522  169.6818 F       1  UNL1       -0.1659
     38 F         140.8072  144.3270  169.9698 F       1  UNL1       -0.1659
@<TRIPOS>BOND
     1     1     2    2
     2     2    24    1
     3    24    25    1
     4    25    26   am
     5    26    27    2
     6    26    29    1
     7    29    30   ar
     8    30    31   ar
     9    31    32   ar
    10    32    35    1
    11    35    36    1
    12    35    37    1
    13    35    38    1
    14    32    33   ar
    15    33    34   ar
    16     2     3   am
    17     3     5    1
    18     5     6    1
    19     6     7    1
    20     9     7    1
    21     9    10    1
    22    10    11    1
    23    11    12    1
    24    12    15    1
    25    15    16   ar
    26    16    17   ar
    27    17    18   ar
    28    18    19   ar
    29    19    20   ar
    30    19    21    1
    31    21    22    1
    32    22    23    1
    33    12    13    1
    34    13    14    1
    35     7     8    1
    36    34    29   ar
    37     8     5    1
    38    14     9    1
    39    20    15   ar
    40    23    18    1
    41    25    28    1
    42     3     4    1
@<TRIPOS>MOLECULE
*****
 38 42 0 0 0
SMALL
GASTEIGER

@<TRIPOS>ATOM
      1 O         141.1259  144.7872  160.6461 O.2     1  UNL1       -0.2733
      2 C         140.4830  143.5223  161.1327 C.2     1  UNL1        0.2426
      3 N         141.0142  142.1918  160.6880 N.am    1  UNL1       -0.3018
      4 H         140.5923  141.3616  161.0074 H       1  UNL1        0.1495
      5 C         142.1882  142.1263  159.7567 C.3     1  UNL1        0.1035
      6 C         142.4728  142.6277  158.3719 C.3     1  UNL1        0.0933
      7 N         143.8485  142.0338  158.4394 N.3     1  UNL1       -0.2711
      8 C         143.5639  141.5324  159.8242 C.3     1  UNL1        0.0933
      9 C         145.0224  141.9683  157.5081 C.3     1  UNL1        0.0576
     10 C         144.9952  141.0385  156.3314 C.3     1  UNL1        0.0163
     11 C         146.1692  140.9730  155.4000 C.3     1  UNL1        0.0057
     12 C         147.3704  141.8373  155.6454 C.3     1  UNL1        0.0225
     13 C         147.3976  142.7671  156.8221 C.3     1  UNL1        0.0057
     14 C         146.2236  142.8326  157.7535 C.3     1  UNL1        0.0163
     15 C         148.5444  141.7717  154.7139 C.ar    1  UNL1       -0.0193
     16 C         148.3278  141.5249  153.2504 C.ar    1  UNL1       -0.0010
     17 C         149.5017  141.4593  152.3190 C.ar    1  UNL1        0.0399
     18 C         150.8924  141.6407  152.8512 C.ar    1  UNL1        0.1764
     19 C         151.1090  141.8875  154.3148 C.ar    1  UNL1        0.1761
     20 C         149.9351  141.9531  155.2462 C.ar    1  UNL1        0.0359
     21 O         152.5842  142.0274  154.5480 O.3     1  UNL1       -0.4346
     22 C         153.2792  141.8670  153.2284 C.3     1  UNL1        0.4294
     23 O         152.2336  141.6280  152.1798 O.3     1  UNL1       -0.4346
     24 C         139.3089  143.5878  162.0641 C.3     1  UNL1        0.1759
     25 N         139.4685  143.1890  163.5013 N.am    1  UNL1       -0.2931
     26 C         139.3771  141.7440  163.8931 C.2     1  UNL1        0.2462
     27 O         139.1261  140.6978  162.8478 O.2     1  UNL1       -0.2701
     28 H         139.6333  143.8756  164.1873 H       1  UNL1        0.1502
     29 C         139.5367  141.3451  165.3302 C.ar    1  UNL1        0.0534
     30 C         138.9575  140.0503  165.8180 C.ar    1  UNL1        0.0045
     31 C         139.1171  139.6515  167.2552 C.ar    1  UNL1        0.0040
     32 C         139.8559  140.5474  168.2046 C.ar    1  UNL1        0.0714
     33 C         140.4352  141.8423  167.7169 C.ar    1  UNL1        0.0040
     34 C         140.2756  142.2411  166.2797 C.ar    1  UNL1        0.0045
     35 C         140.0155  140.1486  169.6418 C.3     1  UNL1        0.4186
     36 F         140.1751  139.7497  171.0790 F       1  UNL1       -0.1659
     37 F         141.3105  139.4685  169.3093 F       1  UNL1       -0.1659
     38 F         138.7205  140.8286  169.9743 F       1  UNL1       -0.1659
@<TRIPOS>BOND
     1     1     2    2
     2     2    24    1
     3    24    25    1
     4    25    26   am
     5    26    27    2
     6    26    29    1
     7    29    30   ar
     8    30    31   ar
     9    31    32   ar
    10    32    35    1
    11    35    36    1
    12    35    37    1
    13    35    38    1
    14    32    33   ar
    15    33    34   ar
    16     2     3   am
    17     3     5    1
    18     5     6    1
    19     6     7    1
    20     9     7    1
    21     9    10    1
    22    10    11    1
    23    11    12    1
    24    12    15    1
    25    15    16   ar
    26    16    17   ar
    27    17    18   ar
    28    18    19   ar
    29    19    20   ar
    30    19    21    1
    31    21    22    1
    32    22    23    1
    33    12    13    1
    34    13    14    1
    35     7     8    1
    36    34    29   ar
    37     8     5    1
    38    14     9    1
    39    20    15   ar
    40    23    18    1
    41    25    28    1
    42     3     4    1
@<TRIPOS>MOLECULE
*****
 38 42 0 0 0
SMALL
GASTEIGER

@<TRIPOS>ATOM
      1 O         137.3479  142.8556  157.4520 O.2     1  UNL1       -0.2733
      2 C         136.9895  141.5107  156.8926 C.2     1  UNL1        0.2426
      3 N         137.3090  140.2667  157.6675 N.am    1  UNL1       -0.3018
      4 H         137.0738  139.3840  157.3004 H       1  UNL1        0.1495
      5 C         137.9869  140.3677  159.0017 C.3     1  UNL1        0.1035
      6 C         137.6710  139.8965  160.3903 C.3     1  UNL1        0.0933
      7 N         138.9456  140.5104  160.8887 N.3     1  UNL1       -0.2711
      8 C         139.2616  140.9815  159.5001 C.3     1  UNL1        0.0933
      9 C         139.6236  140.6113  162.2229 C.3     1  UNL1        0.0576
     10 C         139.3977  141.8145  163.0897 C.3     1  UNL1        0.0163
     11 C         140.0756  141.9156  164.4240 C.3     1  UNL1        0.0057
     12 C         140.9793  140.8134  164.8914 C.3     1  UNL1        0.0225
     13 C         141.2052  139.6102  164.0246 C.3     1  UNL1        0.0057
     14 C         140.5273  139.5092  162.6903 C.3     1  UNL1        0.0163
     15 C         141.6573  140.9144  166.2257 C.ar    1  UNL1       -0.0193
     16 C         142.3194  142.1964  166.6354 C.ar    1  UNL1       -0.0010
     17 C         142.9973  142.2975  167.9696 C.ar    1  UNL1        0.0399
     18 C         143.0131  141.1164  168.8942 C.ar    1  UNL1        0.1764
     19 C         142.3509  139.8343  168.4845 C.ar    1  UNL1        0.1761
     20 C         141.6730  139.7333  167.1503 C.ar    1  UNL1        0.0359
     21 O         142.5272  138.8451  169.5982 O.3     1  UNL1       -0.4346
     22 C         143.2983  139.5158  170.6962 C.3     1  UNL1        0.4294
     23 O         143.5986  140.9196  170.2611 O.3     1  UNL1       -0.4346
     24 C         136.3115  141.4098  155.5583 C.3     1  UNL1        0.1759
     25 N         134.8240  141.5753  155.4584 N.am    1  UNL1       -0.2931
     26 C         133.9131  140.5865  156.1236 C.2     1  UNL1        0.2462
     27 O         134.4897  139.4322  156.8887 O.2     1  UNL1       -0.2701
     28 H         134.4456  142.3329  154.9563 H       1  UNL1        0.1502
     29 C         132.4256  140.7519  156.0238 C.ar    1  UNL1        0.0534
     30 C         131.5168  139.8582  156.8145 C.ar    1  UNL1        0.0045
     31 C         130.0293  140.0237  156.7146 C.ar    1  UNL1        0.0040
     32 C         129.4506  141.0829  155.8240 C.ar    1  UNL1        0.0714
     33 C         130.3594  141.9767  155.0332 C.ar    1  UNL1        0.0040
     34 C         131.8469  141.8112  155.1331 C.ar    1  UNL1        0.0045
     35 C         127.9631  141.2484  155.7241 C.3     1  UNL1        0.4186
     36 F         126.4756  141.4138  155.6243 F       1  UNL1       -0.1659
     37 F         128.1266  141.9121  154.3889 F       1  UNL1       -0.1659
     38 F         127.7996  140.5846  157.0593 F       1  UNL1       -0.1659
@<TRIPOS>BOND
     1     1     2    2
     2     2    24    1
     3    24    25    1
     4    25    26   am
     5    26    27    2
     6    26    29    1
     7    29    30   ar
     8    30    31   ar
     9    31    32   ar
    10    32    35    1
    11    35    36    1
    12    35    37    1
    13    35    38    1
    14    32    33   ar
    15    33    34   ar
    16     2     3   am
    17     3     5    1
    18     5     6    1
    19     6     7    1
    20     9     7    1
    21     9    10    1
    22    10    11    1
    23    11    12    1
    24    12    15    1
    25    15    16   ar
    26    16    17   ar
    27    17    18   ar
    28    18    19   ar
    29    19    20   ar
    30    19    21    1
    31    21    22    1
    32    22    23    1
    33    12    13    1
    34    13    14    1
    35     7     8    1
    36    34    29   ar
    37     8     5    1
    38    14     9    1
    39    20    15   ar
    40    23    18    1
    41    25    28    1
    42     3     4    1
@<TRIPOS>MOLECULE
*****
 38 42 0 0 0
SMALL
GASTEIGER

@<TRIPOS>ATOM
      1 O         142.7334  139.7332  157.6435 O.2     1  UNL1       -0.2733
      2 C         142.9595  138.2918  157.2954 C.2     1  UNL1        0.2426
      3 N         143.0130  137.2576  158.3806 N.am    1  UNL1       -0.3018
      4 H         143.1614  136.3116  158.1521 H       1  UNL1        0.1495
      5 C         142.8404  137.6649  159.8138 C.3     1  UNL1        0.1035
      6 C         141.6754  138.0651  160.6699 C.3     1  UNL1        0.0933
      7 N         142.5961  138.2410  161.8408 N.3     1  UNL1       -0.2711
      8 C         143.7611  137.8408  160.9848 C.3     1  UNL1        0.0933
      9 C         142.4235  138.6483  163.2741 C.3     1  UNL1        0.0576
     10 C         143.5937  139.1766  164.0497 C.3     1  UNL1        0.0163
     11 C         143.4212  139.5839  165.4830 C.3     1  UNL1        0.0057
     12 C         142.0785  139.4630  166.1406 C.3     1  UNL1        0.0225
     13 C         140.9083  138.9346  165.3650 C.3     1  UNL1        0.0057
     14 C         141.0808  138.5273  163.9317 C.3     1  UNL1        0.0163
     15 C         141.9060  139.8703  167.5740 C.ar    1  UNL1       -0.0193
     16 C         142.6705  139.1615  168.6523 C.ar    1  UNL1       -0.0010
     17 C         142.4979  139.5688  170.0856 C.ar    1  UNL1        0.0399
     18 C         141.5609  140.6850  170.4405 C.ar    1  UNL1        0.1764
     19 C         140.7963  141.3939  169.3621 C.ar    1  UNL1        0.1761
     20 C         140.9688  140.9866  167.9288 C.ar    1  UNL1        0.0359
     21 O         139.9507  142.4495  170.0107 O.3     1  UNL1       -0.4346
     22 C         140.1927  142.3930  171.4900 C.3     1  UNL1        0.4294
     23 O         141.1878  141.3025  171.7556 O.3     1  UNL1       -0.4346
     24 C         143.1321  137.8845  155.8620 C.3     1  UNL1        0.1759
     25 N         143.5521  136.4844  155.5255 N.am    1  UNL1       -0.2931
     26 C         142.5252  135.3949  155.4344 C.2     1  UNL1        0.2462
     27 O         141.0784  135.7054  155.6797 O.2     1  UNL1       -0.2701
     28 H         144.5017  136.2806  155.3645 H       1  UNL1        0.1502
     29 C         142.9452  133.9947  155.0979 C.ar    1  UNL1        0.0534
     30 C         142.4361  133.3387  153.8488 C.ar    1  UNL1        0.0045
     31 C         142.8562  131.9385  153.5123 C.ar    1  UNL1        0.0040
     32 C         143.7854  131.1944  154.4250 C.ar    1  UNL1        0.0714
     33 C         144.2945  131.8505  155.6741 C.ar    1  UNL1        0.0040
     34 C         143.8745  133.2506  156.0106 C.ar    1  UNL1        0.0045
     35 C         144.2054  129.7943  154.0885 C.3     1  UNL1        0.4186
     36 F         144.6254  128.3942  153.7520 F       1  UNL1       -0.1659
     37 F         145.2898  129.8712  155.1220 F       1  UNL1       -0.1659
     38 F         143.1210  129.7174  153.0550 F       1  UNL1       -0.1659
@<TRIPOS>BOND
     1     1     2    2
     2     2    24    1
     3    24    25    1
     4    25    26   am
     5    26    27    2
     6    26    29    1
     7    29    30   ar
     8    30    31   ar
     9    31    32   ar
    10    32    35    1
    11    35    36    1
    12    35    37    1
    13    35    38    1
    14    32    33   ar
    15    33    34   ar
    16     2     3   am
    17     3     5    1
    18     5     6    1
    19     6     7    1
    20     9     7    1
    21     9    10    1
    22    10    11    1
    23    11    12    1
    24    12    15    1
    25    15    16   ar
    26    16    17   ar
    27    17    18   ar
    28    18    19   ar
    29    19    20   ar
    30    19    21    1
    31    21    22    1
    32    22    23    1
    33    12    13    1
    34    13    14    1
    35     7     8    1
    36    34    29   ar
    37     8     5    1
    38    14     9    1
    39    20    15   ar
    40    23    18    1
    41    25    28    1
    42     3     4    1
@<TRIPOS>MOLECULE
*****
 38 42 0 0 0
SMALL
GASTEIGER

@<TRIPOS>ATOM
      1 O         141.9713  142.5398  156.5615 O.2     1  UNL1       -0.2733
      2 C         143.3976  142.9577  156.3592 C.2     1  UNL1        0.2426
      3 N         144.2964  143.1554  157.5437 N.am    1  UNL1       -0.3018
      4 H         145.2326  143.4297  157.4110 H       1  UNL1        0.1495
      5 C         143.7689  142.9351  158.9304 C.3     1  UNL1        0.1035
      6 C         144.1945  142.1100  160.1086 C.3     1  UNL1        0.0933
      7 N         143.0228  142.6235  160.8917 N.3     1  UNL1       -0.2711
      8 C         142.5971  143.4487  159.7136 C.3     1  UNL1        0.0933
      9 C         142.4952  142.4033  162.2784 C.3     1  UNL1        0.0576
     10 C         141.6509  141.2000  162.5773 C.3     1  UNL1        0.0163
     11 C         141.1233  140.9796  163.9640 C.3     1  UNL1        0.0057
     12 C         141.4400  141.9626  165.0519 C.3     1  UNL1        0.0225
     13 C         142.2842  143.1658  164.7531 C.3     1  UNL1        0.0057
     14 C         142.8119  143.3862  163.3663 C.3     1  UNL1        0.0163
     15 C         140.9123  141.7422  166.4387 C.ar    1  UNL1       -0.0193
     16 C         140.5052  140.3666  166.8765 C.ar    1  UNL1       -0.0010
     17 C         139.9775  140.1462  168.2632 C.ar    1  UNL1        0.0399
     18 C         139.8571  141.3016  169.2122 C.ar    1  UNL1        0.1764
     19 C         140.2642  142.6773  168.7744 C.ar    1  UNL1        0.1761
     20 C         140.7919  142.8977  167.3877 C.ar    1  UNL1        0.0359
     21 O         140.0342  143.6159  169.9217 O.3     1  UNL1       -0.4346
     22 C         139.4849  142.8202  171.0684 C.3     1  UNL1        0.4294
     23 O         139.3754  141.3899  170.6300 O.3     1  UNL1       -0.4346
     24 C         143.9252  143.1780  154.9723 C.3     1  UNL1        0.1759
     25 N         145.3966  143.3675  154.7509 N.am    1  UNL1       -0.2931
     26 C         146.3015  142.1745  154.6632 C.2     1  UNL1        0.2462
     27 O         145.7351  140.7920  154.7968 O.2     1  UNL1       -0.2701
     28 H         145.7684  144.2749  154.6632 H       1  UNL1        0.1502
     29 C         147.7729  142.3640  154.4418 C.ar    1  UNL1        0.0534
     30 C         148.2565  143.2398  153.3241 C.ar    1  UNL1        0.0045
     31 C         149.7280  143.4292  153.1028 C.ar    1  UNL1        0.0040
     32 C         150.7158  142.7430  153.9990 C.ar    1  UNL1        0.0714
     33 C         150.2322  141.8673  155.1167 C.ar    1  UNL1        0.0040
     34 C         148.7608  141.6777  155.3381 C.ar    1  UNL1        0.0045
     35 C         152.1873  142.9325  153.7776 C.3     1  UNL1        0.4186
     36 F         153.6587  143.1221  153.5562 F       1  UNL1       -0.1659
     37 F         152.4135  141.4715  154.0307 F       1  UNL1       -0.1659
     38 F         151.9610  144.3936  153.5245 F       1  UNL1       -0.1659
@<TRIPOS>BOND
     1     1     2    2
     2     2    24    1
     3    24    25    1
     4    25    26   am
     5    26    27    2
     6    26    29    1
     7    29    30   ar
     8    30    31   ar
     9    31    32   ar
    10    32    35    1
    11    35    36    1
    12    35    37    1
    13    35    38    1
    14    32    33   ar
    15    33    34   ar
    16     2     3   am
    17     3     5    1
    18     5     6    1
    19     6     7    1
    20     9     7    1
    21     9    10    1
    22    10    11    1
    23    11    12    1
    24    12    15    1
    25    15    16   ar
    26    16    17   ar
    27    17    18   ar
    28    18    19   ar
    29    19    20   ar
    30    19    21    1
    31    21    22    1
    32    22    23    1
    33    12    13    1
    34    13    14    1
    35     7     8    1
    36    34    29   ar
    37     8     5    1
    38    14     9    1
    39    20    15   ar
    40    23    18    1
    41    25    28    1
    42     3     4    1
