@<TRIPOS>MOLECULE
*****
 35 38 0 0 0
SMALL
GASTEIGER

@<TRIPOS>ATOM
      1 N         138.1465  139.9701  162.5360 N.3     1  UNL1       -0.2689
      2 C         137.8310  140.7187  163.7970 C.3     1  UNL1        0.0737
      3 C         137.6799  142.2107  163.7656 C.3     1  UNL1        0.0356
      4 C         137.8442  142.9541  162.4732 C.3     1  UNL1        0.0845
      5 C         138.1597  142.2055  161.2122 C.3     1  UNL1        0.1455
      6 C         138.3108  140.7135  161.2436 C.3     1  UNL1        0.1034
      7 N         137.6931  144.4462  162.4418 N.3     1  UNL1       -0.2928
      8 H         136.8850  144.6726  163.0215 H       1  UNL1        0.1236
      9 C         138.8179  145.3239  162.9050 C.3     1  UNL1        0.0972
     10 C         140.2393  144.8827  162.7182 C.ar    1  UNL1        0.0135
     11 C         140.8811  144.9735  161.3655 C.ar    1  UNL1        0.0955
     12 N         142.3025  144.5324  161.1787 N.ar    1  UNL1       -0.2477
     13 C         143.0822  144.0004  162.3446 C.ar    1  UNL1        0.0689
     14 C         144.5036  143.5592  162.1578 C.3     1  UNL1        0.0528
     15 C         142.4403  143.9095  163.6973 C.ar    1  UNL1        0.0817
     16 C         141.0188  144.3507  163.8841 C.ar    1  UNL1        0.0101
     17 C         143.2198  143.3776  164.8631 C.1     1  UNL1        0.1016
     18 N         143.9994  142.8455  166.0291 N.1     1  UNL1       -0.1908
     19 O         138.3240  142.9490  159.9198 O.3     1  UNL1       -0.3508
     20 C         139.2114  142.3962  158.8442 C.3     1  UNL1        0.1741
     21 C         138.2976  138.4780  162.5675 C.3     1  UNL1        0.0970
     22 C         139.0606  137.8248  163.6815 C.3     1  UNL1        0.1264
     23 C         139.9781  139.6916  167.6718 C.ar    1  UNL1        0.1593
     24 C         141.3747  140.1388  167.9873 C.ar    1  UNL1        0.1357
     25 N         142.4655  139.9636  166.9726 N.ar    1  UNL1       -0.2392
     26 C         142.1597  139.3413  165.6425 C.ar    1  UNL1        0.0975
     27 C         143.2505  139.1662  164.6279 C.ar    1  UNL1        0.0255
     28 C         142.9446  138.5439  163.2978 C.ar    1  UNL1        0.0623
     29 C         141.5480  138.0968  162.9823 C.ar    1  UNL1        0.2611
     30 O         141.2422  137.4745  161.6522 O.2     1  UNL1       -0.2670
     31 N         140.4572  138.2719  163.9969 N.ar    1  UNL1       -0.2926
     32 C         140.7631  138.8942  165.3271 C.ar    1  UNL1        0.0832
     33 C         139.6723  139.0694  166.3417 C.ar    1  UNL1        0.0573
     34 C         139.1613  140.6071  169.9619 C.3     1  UNL1        0.2525
     35 O         138.8874  139.8668  168.6865 O.3     1  UNL1       -0.4698
@<TRIPOS>BOND
     1    34    35    1
     2    35    23    1
     3    23    24   ar
     4    24    25   ar
     5    25    26   ar
     6    26    27   ar
     7    27    28   ar
     8    28    29   ar
     9    29    30    2
    10    29    31   ar
    11    31    22    1
    12    22    21    1
    13    21     1    1
    14     1     2    1
    15     2     3    1
    16     3     4    1
    17     4     7    1
    18     7     9    1
    19     9    10    1
    20    10    11   ar
    21    11    12   ar
    22    12    13   ar
    23    13    14    1
    24    13    15   ar
    25    15    17    1
    26    17    18    3
    27    15    16   ar
    28     4     5    1
    29     5    19    1
    30    19    20    1
    31     5     6    1
    32    31    32   ar
    33    32    33   ar
    34    33    23   ar
    35    32    26   ar
    36     6     1    1
    37    16    10   ar
    38     7     8    1
@<TRIPOS>MOLECULE
*****
 35 38 0 0 0
SMALL
GASTEIGER

@<TRIPOS>ATOM
      1 N         142.8692  143.3965  161.4019 N.3     1  UNL1       -0.2689
      2 C         143.1829  144.2342  162.6060 C.3     1  UNL1        0.0737
      3 C         142.0747  144.9043  163.3628 C.3     1  UNL1        0.0356
      4 C         140.6528  144.7367  162.9156 C.3     1  UNL1        0.0845
      5 C         140.3391  143.8989  161.7115 C.3     1  UNL1        0.1455
      6 C         141.4473  143.2288  160.9547 C.3     1  UNL1        0.1034
      7 N         139.5445  145.4068  163.6725 N.3     1  UNL1       -0.2928
      8 H         138.7373  145.4342  163.0496 H       1  UNL1        0.1236
      9 C         139.0688  144.8300  164.9728 C.3     1  UNL1        0.0972
     10 C         138.9942  143.3425  165.1509 C.ar    1  UNL1        0.0135
     11 C         137.9092  142.5595  164.4729 C.ar    1  UNL1        0.0955
     12 N         137.8346  141.0720  164.6510 N.ar    1  UNL1       -0.2477
     13 C         138.8450  140.3675  165.5071 C.ar    1  UNL1        0.0689
     14 C         138.7703  138.8800  165.6852 C.3     1  UNL1        0.0528
     15 C         139.9299  141.1505  166.1851 C.ar    1  UNL1        0.0817
     16 C         140.0045  142.6381  166.0070 C.ar    1  UNL1        0.0101
     17 C         140.9402  140.4461  167.0412 C.1     1  UNL1        0.1016
     18 N         141.9507  139.7416  167.8974 N.1     1  UNL1       -0.1908
     19 O         138.9171  143.7313  161.2643 O.3     1  UNL1       -0.3508
     20 C         138.5233  142.5354  160.4490 C.3     1  UNL1        0.1741
     21 C         143.9774  142.7264  160.6450 C.3     1  UNL1        0.0970
     22 C         144.1223  141.2341  160.6919 C.3     1  UNL1        0.1264
     23 C         140.6968  138.3823  161.3109 C.ar    1  UNL1        0.1593
     24 C         140.5524  137.6554  162.6150 C.ar    1  UNL1        0.1357
     25 N         141.5499  137.8790  163.7128 N.ar    1  UNL1       -0.2392
     26 C         142.6917  138.8296  163.5065 C.ar    1  UNL1        0.0975
     27 C         143.6891  139.0533  164.6042 C.ar    1  UNL1        0.0255
     28 C         144.8309  140.0039  164.3979 C.ar    1  UNL1        0.0623
     29 C         144.9753  140.7309  163.0938 C.ar    1  UNL1        0.2611
     30 O         146.1171  141.6814  162.8875 O.2     1  UNL1       -0.2670
     31 N         143.9779  140.5072  161.9960 N.ar    1  UNL1       -0.2926
     32 C         142.8360  139.5565  162.2024 C.ar    1  UNL1        0.0832
     33 C         141.8386  139.3329  161.1046 C.ar    1  UNL1        0.0573
     34 C         139.6610  139.0854  159.0344 C.3     1  UNL1        0.2525
     35 O         139.6994  138.1586  160.2131 O.3     1  UNL1       -0.4698
@<TRIPOS>BOND
     1    34    35    1
     2    35    23    1
     3    23    24   ar
     4    24    25   ar
     5    25    26   ar
     6    26    27   ar
     7    27    28   ar
     8    28    29   ar
     9    29    30    2
    10    29    31   ar
    11    31    22    1
    12    22    21    1
    13    21     1    1
    14     1     2    1
    15     2     3    1
    16     3     4    1
    17     4     7    1
    18     7     9    1
    19     9    10    1
    20    10    11   ar
    21    11    12   ar
    22    12    13   ar
    23    13    14    1
    24    13    15   ar
    25    15    17    1
    26    17    18    3
    27    15    16   ar
    28     4     5    1
    29     5    19    1
    30    19    20    1
    31     5     6    1
    32    31    32   ar
    33    32    33   ar
    34    33    23   ar
    35    32    26   ar
    36     6     1    1
    37    16    10   ar
    38     7     8    1
@<TRIPOS>MOLECULE
*****
 35 38 0 0 0
SMALL
GASTEIGER

@<TRIPOS>ATOM
      1 N         139.0056  142.2091  161.9474 N.3     1  UNL1       -0.2689
      2 C         138.4011  142.8738  163.1486 C.3     1  UNL1        0.0737
      3 C         137.9877  142.0509  164.3325 C.3     1  UNL1        0.0356
      4 C         138.1787  140.5632  164.3153 C.3     1  UNL1        0.0845
      5 C         138.7832  139.8985  163.1142 C.3     1  UNL1        0.1455
      6 C         139.1967  140.7215  161.9302 C.3     1  UNL1        0.1034
      7 N         137.7652  139.7402  165.4993 N.3     1  UNL1       -0.2928
      8 H         137.1557  139.0023  165.1466 H       1  UNL1        0.1236
      9 C         138.8058  139.0730  166.3491 C.3     1  UNL1        0.0972
     10 C         139.9007  139.8874  166.9717 C.ar    1  UNL1        0.0135
     11 C         141.1222  140.2363  166.1740 C.ar    1  UNL1        0.0955
     12 N         142.2171  141.0508  166.7966 N.ar    1  UNL1       -0.2477
     13 C         142.0906  141.5164  168.2170 C.ar    1  UNL1        0.0689
     14 C         143.1856  142.3309  168.8396 C.3     1  UNL1        0.0528
     15 C         140.8692  141.1675  169.0146 C.ar    1  UNL1        0.0817
     16 C         139.7742  140.3530  168.3919 C.ar    1  UNL1        0.0101
     17 C         140.7426  141.6331  170.4349 C.1     1  UNL1        0.1016
     18 N         140.6160  142.0987  171.8552 N.1     1  UNL1       -0.1908
     19 O         138.9742  138.4108  163.0970 O.3     1  UNL1       -0.3508
     20 C         140.2099  137.8203  162.4851 C.3     1  UNL1        0.1741
     21 C         139.4191  143.0322  160.7635 C.3     1  UNL1        0.0970
     22 C         140.8450  143.4747  160.6189 C.3     1  UNL1        0.1264
     23 C         143.9962  140.4675  161.7487 C.ar    1  UNL1        0.1593
     24 C         144.8404  140.6882  162.9688 C.ar    1  UNL1        0.1357
     25 N         144.6342  141.9113  163.8123 N.ar    1  UNL1       -0.2392
     26 C         143.5838  142.9137  163.4357 C.ar    1  UNL1        0.0975
     27 C         143.3776  144.1368  164.2792 C.ar    1  UNL1        0.0255
     28 C         142.3272  145.1392  163.9026 C.ar    1  UNL1        0.0623
     29 C         141.4830  144.9185  162.6825 C.ar    1  UNL1        0.2611
     30 O         140.4326  145.9209  162.3059 O.2     1  UNL1       -0.2670
     31 N         141.6892  143.6954  161.8390 N.ar    1  UNL1       -0.2926
     32 C         142.7396  142.6930  162.2156 C.ar    1  UNL1        0.0832
     33 C         142.9458  141.4699  161.3721 C.ar    1  UNL1        0.0573
     34 C         143.9231  137.8850  161.4744 C.3     1  UNL1        0.2525
     35 O         144.2024  139.2444  160.9052 O.3     1  UNL1       -0.4698
@<TRIPOS>BOND
     1    34    35    1
     2    35    23    1
     3    23    24   ar
     4    24    25   ar
     5    25    26   ar
     6    26    27   ar
     7    27    28   ar
     8    28    29   ar
     9    29    30    2
    10    29    31   ar
    11    31    22    1
    12    22    21    1
    13    21     1    1
    14     1     2    1
    15     2     3    1
    16     3     4    1
    17     4     7    1
    18     7     9    1
    19     9    10    1
    20    10    11   ar
    21    11    12   ar
    22    12    13   ar
    23    13    14    1
    24    13    15   ar
    25    15    17    1
    26    17    18    3
    27    15    16   ar
    28     4     5    1
    29     5    19    1
    30    19    20    1
    31     5     6    1
    32    31    32   ar
    33    32    33   ar
    34    33    23   ar
    35    32    26   ar
    36     6     1    1
    37    16    10   ar
    38     7     8    1
@<TRIPOS>MOLECULE
*****
 35 38 0 0 0
SMALL
GASTEIGER

@<TRIPOS>ATOM
      1 N         141.1553  144.7666  162.7083 N.3     1  UNL1       -0.2689
      2 C         142.2129  144.8386  163.7695 C.3     1  UNL1        0.0737
      3 C         143.5497  144.1978  163.5409 C.3     1  UNL1        0.0356
      4 C         143.8289  143.4849  162.2510 C.3     1  UNL1        0.0845
      5 C         142.7712  143.4129  161.1898 C.3     1  UNL1        0.1455
      6 C         141.4345  144.0538  161.4184 C.3     1  UNL1        0.1034
      7 N         145.1657  142.8440  162.0223 N.3     1  UNL1       -0.2928
      8 H         145.8659  143.5784  162.1262 H       1  UNL1        0.1236
      9 C         145.6066  141.6999  162.8864 C.3     1  UNL1        0.0972
     10 C         144.6122  140.6680  163.3294 C.ar    1  UNL1        0.0135
     11 C         143.8146  139.9091  162.3106 C.ar    1  UNL1        0.0955
     12 N         142.8202  138.8771  162.7535 N.ar    1  UNL1       -0.2477
     13 C         142.6234  138.6040  164.2153 C.ar    1  UNL1        0.0689
     14 C         141.6290  137.5721  164.6582 C.3     1  UNL1        0.0528
     15 C         143.4210  139.3630  165.2341 C.ar    1  UNL1        0.0817
     16 C         144.4154  140.3950  164.7911 C.ar    1  UNL1        0.0101
     17 C         143.2241  139.0899  166.6958 C.1     1  UNL1        0.1016
     18 N         143.0273  138.8169  168.1576 N.1     1  UNL1       -0.1908
     19 O         143.0505  142.7000  159.8998 O.3     1  UNL1       -0.3508
     20 C         142.1370  141.6046  159.4353 C.3     1  UNL1        0.1741
     21 C         139.8185  145.4075  162.9370 C.3     1  UNL1        0.0970
     22 C         138.7955  144.7231  163.7944 C.3     1  UNL1        0.1264
     23 C         140.2843  142.4913  167.4072 C.ar    1  UNL1        0.1593
     24 C         140.2173  140.9932  167.4435 C.ar    1  UNL1        0.1357
     25 N         139.6539  140.2391  166.2756 N.ar    1  UNL1       -0.2392
     26 C         139.1577  140.9831  165.0714 C.ar    1  UNL1        0.0975
     27 C         138.5943  140.2290  163.9035 C.ar    1  UNL1        0.0255
     28 C         138.0981  140.9729  162.6992 C.ar    1  UNL1        0.0623
     29 C         138.1651  142.4710  162.6628 C.ar    1  UNL1        0.2611
     30 O         137.6688  143.2149  161.4586 O.2     1  UNL1       -0.2670
     31 N         138.7284  143.2251  163.8307 N.ar    1  UNL1       -0.2926
     32 C         139.2247  142.4811  165.0350 C.ar    1  UNL1        0.0832
     33 C         139.7881  143.2352  166.2029 C.ar    1  UNL1        0.0573
     34 C         140.2894  143.0253  169.9497 C.3     1  UNL1        0.2525
     35 O         140.8477  143.2454  168.5751 O.3     1  UNL1       -0.4698
@<TRIPOS>BOND
     1    34    35    1
     2    35    23    1
     3    23    24   ar
     4    24    25   ar
     5    25    26   ar
     6    26    27   ar
     7    27    28   ar
     8    28    29   ar
     9    29    30    2
    10    29    31   ar
    11    31    22    1
    12    22    21    1
    13    21     1    1
    14     1     2    1
    15     2     3    1
    16     3     4    1
    17     4     7    1
    18     7     9    1
    19     9    10    1
    20    10    11   ar
    21    11    12   ar
    22    12    13   ar
    23    13    14    1
    24    13    15   ar
    25    15    17    1
    26    17    18    3
    27    15    16   ar
    28     4     5    1
    29     5    19    1
    30    19    20    1
    31     5     6    1
    32    31    32   ar
    33    32    33   ar
    34    33    23   ar
    35    32    26   ar
    36     6     1    1
    37    16    10   ar
    38     7     8    1
@<TRIPOS>MOLECULE
*****
 35 38 0 0 0
SMALL
GASTEIGER

@<TRIPOS>ATOM
      1 N         142.5390  144.1027  163.2725 N.3     1  UNL1       -0.2689
      2 C         142.4146  143.3097  162.0054 C.3     1  UNL1        0.0737
      3 C         141.0588  143.0110  161.4375 C.3     1  UNL1        0.0356
      4 C         139.8274  143.5053  162.1368 C.3     1  UNL1        0.0845
      5 C         139.9517  144.2983  163.4040 C.3     1  UNL1        0.1455
      6 C         141.3075  144.5970  163.9719 C.3     1  UNL1        0.1034
      7 N         138.4714  143.2066  161.5690 N.3     1  UNL1       -0.2928
      8 H         138.3991  143.7229  160.6923 H       1  UNL1        0.1236
      9 C         138.0786  141.7900  161.2710 C.3     1  UNL1        0.0972
     10 C         138.6591  140.6655  162.0762 C.ar    1  UNL1        0.0135
     11 C         139.7298  139.7958  161.4869 C.ar    1  UNL1        0.0955
     12 N         140.3103  138.6713  162.2921 N.ar    1  UNL1       -0.2477
     13 C         139.8202  138.4164  163.6868 C.ar    1  UNL1        0.0689
     14 C         140.4007  137.2919  164.4920 C.3     1  UNL1        0.0528
     15 C         138.7495  139.2861  164.2761 C.ar    1  UNL1        0.0817
     16 C         138.1690  140.4107  163.4708 C.ar    1  UNL1        0.0101
     17 C         138.2594  139.0314  165.6706 C.1     1  UNL1        0.1016
     18 N         137.7692  138.7766  167.0652 N.1     1  UNL1       -0.1908
     19 O         138.7201  144.7926  164.1033 O.3     1  UNL1       -0.3508
     20 C         138.7005  144.9033  165.5991 C.3     1  UNL1        0.1741
     21 C         143.8949  144.4014  163.8404 C.3     1  UNL1        0.0970
     22 C         144.4383  143.5675  164.9627 C.3     1  UNL1        0.1264
     23 C         141.2934  141.8579  167.6897 C.ar    1  UNL1        0.1593
     24 C         141.0449  140.3789  167.7135 C.ar    1  UNL1        0.1357
     25 N         141.8448  139.4697  166.8283 N.ar    1  UNL1       -0.2392
     26 C         142.8931  140.0395  165.9193 C.ar    1  UNL1        0.0975
     27 C         143.6929  139.1303  165.0341 C.ar    1  UNL1        0.0255
     28 C         144.7412  139.7001  164.1251 C.ar    1  UNL1        0.0623
     29 C         144.9897  141.1793  164.1013 C.ar    1  UNL1        0.2611
     30 O         146.0379  141.7491  163.1922 O.2     1  UNL1       -0.2670
     31 N         144.1898  142.0885  164.9865 N.ar    1  UNL1       -0.2926
     32 C         143.1415  141.5186  165.8955 C.ar    1  UNL1        0.0832
     33 C         142.3417  142.4278  166.7807 C.ar    1  UNL1        0.0573
     34 C         140.0785  142.3088  169.9415 C.3     1  UNL1        0.2525
     35 O         140.4936  142.7672  168.5749 O.3     1  UNL1       -0.4698
@<TRIPOS>BOND
     1    34    35    1
     2    35    23    1
     3    23    24   ar
     4    24    25   ar
     5    25    26   ar
     6    26    27   ar
     7    27    28   ar
     8    28    29   ar
     9    29    30    2
    10    29    31   ar
    11    31    22    1
    12    22    21    1
    13    21     1    1
    14     1     2    1
    15     2     3    1
    16     3     4    1
    17     4     7    1
    18     7     9    1
    19     9    10    1
    20    10    11   ar
    21    11    12   ar
    22    12    13   ar
    23    13    14    1
    24    13    15   ar
    25    15    17    1
    26    17    18    3
    27    15    16   ar
    28     4     5    1
    29     5    19    1
    30    19    20    1
    31     5     6    1
    32    31    32   ar
    33    32    33   ar
    34    33    23   ar
    35    32    26   ar
    36     6     1    1
    37    16    10   ar
    38     7     8    1
@<TRIPOS>MOLECULE
*****
 35 38 0 0 0
SMALL
GASTEIGER

@<TRIPOS>ATOM
      1 N         138.0112  142.4542  163.7702 N.3     1  UNL1       -0.2689
      2 C         138.1783  142.2114  162.2994 C.3     1  UNL1        0.0737
      3 C         138.4219  140.8211  161.7917 C.3     1  UNL1        0.0356
      4 C         138.4983  139.6737  162.7547 C.3     1  UNL1        0.0845
      5 C         138.3312  139.9165  164.2254 C.3     1  UNL1        0.1455
      6 C         138.0876  141.3067  164.7332 C.3     1  UNL1        0.1034
      7 N         138.7419  138.2833  162.2469 N.3     1  UNL1       -0.2928
      8 H         138.0403  138.1052  161.5283 H       1  UNL1        0.1236
      9 C         140.0714  137.9242  161.6525 C.3     1  UNL1        0.0972
     10 C         141.3308  138.5009  162.2282 C.ar    1  UNL1        0.0135
     11 C         142.1900  139.4061  161.3960 C.ar    1  UNL1        0.0955
     12 N         143.4493  139.9828  161.9717 N.ar    1  UNL1       -0.2477
     13 C         143.8494  139.6545  163.3796 C.ar    1  UNL1        0.0689
     14 C         145.1088  140.2313  163.9552 C.3     1  UNL1        0.0528
     15 C         142.9902  138.7494  164.2118 C.ar    1  UNL1        0.0817
     16 C         141.7309  138.1726  163.6360 C.ar    1  UNL1        0.0101
     17 C         143.3903  138.4210  165.6196 C.1     1  UNL1        0.1016
     18 N         143.7905  138.0927  167.0275 N.1     1  UNL1       -0.1908
     19 O         138.4076  138.7689  165.1884 O.3     1  UNL1       -0.3508
     20 C         138.0085  138.9642  166.6211 C.3     1  UNL1        0.1741
     21 C         137.7676  143.8445  164.2779 C.3     1  UNL1        0.0970
     22 C         138.8981  144.6381  164.8629 C.3     1  UNL1        0.1264
     23 C         141.0659  141.9840  167.7795 C.ar    1  UNL1        0.1593
     24 C         142.4848  141.5775  167.5121 C.ar    1  UNL1        0.1357
     25 N         143.1811  142.0557  166.2725 N.ar    1  UNL1       -0.2392
     26 C         142.4585  142.9403  165.3003 C.ar    1  UNL1        0.0975
     27 C         143.1548  143.4185  164.0608 C.ar    1  UNL1        0.0255
     28 C         142.4322  144.3032  163.0886 C.ar    1  UNL1        0.0623
     29 C         141.0133  144.7098  163.3560 C.ar    1  UNL1        0.2611
     30 O         140.2907  145.5945  162.3838 O.2     1  UNL1       -0.2670
     31 N         140.3170  144.2316  164.5955 N.ar    1  UNL1       -0.2926
     32 C         141.0396  143.3468  165.5677 C.ar    1  UNL1        0.0832
     33 C         140.3434  142.8686  166.8073 C.ar    1  UNL1        0.0573
     34 C         140.0303  142.4769  170.1106 C.3     1  UNL1        0.2525
     35 O         140.3697  141.5058  169.0190 O.3     1  UNL1       -0.4698
@<TRIPOS>BOND
     1    34    35    1
     2    35    23    1
     3    23    24   ar
     4    24    25   ar
     5    25    26   ar
     6    26    27   ar
     7    27    28   ar
     8    28    29   ar
     9    29    30    2
    10    29    31   ar
    11    31    22    1
    12    22    21    1
    13    21     1    1
    14     1     2    1
    15     2     3    1
    16     3     4    1
    17     4     7    1
    18     7     9    1
    19     9    10    1
    20    10    11   ar
    21    11    12   ar
    22    12    13   ar
    23    13    14    1
    24    13    15   ar
    25    15    17    1
    26    17    18    3
    27    15    16   ar
    28     4     5    1
    29     5    19    1
    30    19    20    1
    31     5     6    1
    32    31    32   ar
    33    32    33   ar
    34    33    23   ar
    35    32    26   ar
    36     6     1    1
    37    16    10   ar
    38     7     8    1
@<TRIPOS>MOLECULE
*****
 35 38 0 0 0
SMALL
GASTEIGER

@<TRIPOS>ATOM
      1 N         143.4080  143.4840  163.2784 N.3     1  UNL1       -0.2689
      2 C         142.7521  143.1218  164.5778 C.3     1  UNL1        0.0737
      3 C         141.3810  143.6402  164.8959 C.3     1  UNL1        0.0356
      4 C         140.6658  144.5209  163.9147 C.3     1  UNL1        0.0845
      5 C         141.3218  144.8831  162.6152 C.3     1  UNL1        0.1455
      6 C         142.6929  144.3647  162.2971 C.3     1  UNL1        0.1034
      7 N         139.2946  145.0393  164.2328 N.3     1  UNL1       -0.2928
      8 H         139.2976  146.0350  164.0114 H       1  UNL1        0.1236
      9 C         138.0937  144.4488  163.5553 C.3     1  UNL1        0.0972
     10 C         138.0679  142.9885  163.2135 C.ar    1  UNL1        0.0135
     11 C         137.9778  142.5552  161.7802 C.ar    1  UNL1        0.0955
     12 N         137.9520  141.0950  161.4384 N.ar    1  UNL1       -0.2477
     13 C         138.0162  140.0679  162.5298 C.ar    1  UNL1        0.0689
     14 C         137.9904  138.6076  162.1879 C.3     1  UNL1        0.0528
     15 C         138.1063  140.5012  163.9630 C.ar    1  UNL1        0.0817
     16 C         138.1321  141.9615  164.3048 C.ar    1  UNL1        0.0101
     17 C         138.1705  139.4742  165.0544 C.1     1  UNL1        0.1016
     18 N         138.2347  138.4471  166.1458 N.1     1  UNL1       -0.1908
     19 O         140.6065  145.7638  161.6339 O.3     1  UNL1       -0.3508
     20 C         140.2342  145.2321  160.2816 C.3     1  UNL1        0.1741
     21 C         144.7792  142.9656  162.9602 C.3     1  UNL1        0.0970
     22 C         144.9739  141.5166  162.6247 C.3     1  UNL1        0.1264
     23 C         142.8837  138.6463  165.3891 C.ar    1  UNL1        0.1593
     24 C         141.7285  137.8304  164.8893 C.ar    1  UNL1        0.1357
     25 N         141.2701  137.9712  163.4680 N.ar    1  UNL1       -0.2392
     26 C         141.9668  138.9280  162.5466 C.ar    1  UNL1        0.0975
     27 C         141.5084  139.0688  161.1253 C.ar    1  UNL1        0.0255
     28 C         142.2051  140.0256  160.2038 C.ar    1  UNL1        0.0623
     29 C         143.3603  140.8415  160.7036 C.ar    1  UNL1        0.2611
     30 O         144.0570  141.7983  159.7821 O.2     1  UNL1       -0.2670
     31 N         143.8188  140.7007  162.1249 N.ar    1  UNL1       -0.2926
     32 C         143.1220  139.7439  163.0463 C.ar    1  UNL1        0.0832
     33 C         143.5804  139.6030  164.4676 C.ar    1  UNL1        0.0573
     34 C         142.7278  139.3536  167.8841 C.3     1  UNL1        0.2525
     35 O         143.3421  138.5054  166.8103 O.3     1  UNL1       -0.4698
@<TRIPOS>BOND
     1    34    35    1
     2    35    23    1
     3    23    24   ar
     4    24    25   ar
     5    25    26   ar
     6    26    27   ar
     7    27    28   ar
     8    28    29   ar
     9    29    30    2
    10    29    31   ar
    11    31    22    1
    12    22    21    1
    13    21     1    1
    14     1     2    1
    15     2     3    1
    16     3     4    1
    17     4     7    1
    18     7     9    1
    19     9    10    1
    20    10    11   ar
    21    11    12   ar
    22    12    13   ar
    23    13    14    1
    24    13    15   ar
    25    15    17    1
    26    17    18    3
    27    15    16   ar
    28     4     5    1
    29     5    19    1
    30    19    20    1
    31     5     6    1
    32    31    32   ar
    33    32    33   ar
    34    33    23   ar
    35    32    26   ar
    36     6     1    1
    37    16    10   ar
    38     7     8    1
@<TRIPOS>MOLECULE
*****
 35 38 0 0 0
SMALL
GASTEIGER

@<TRIPOS>ATOM
      1 N         142.4581  143.4294  163.3970 N.3     1  UNL1       -0.2689
      2 C         142.5863  143.2804  161.9099 C.3     1  UNL1        0.0737
      3 C         143.2797  142.0818  161.3333 C.3     1  UNL1        0.0356
      4 C         143.8448  141.0323  162.2437 C.3     1  UNL1        0.0845
      5 C         143.7166  141.1813  163.7308 C.3     1  UNL1        0.1455
      6 C         143.0233  142.3798  164.3074 C.3     1  UNL1        0.1034
      7 N         144.5382  139.8336  161.6671 N.3     1  UNL1       -0.2928
      8 H         144.9056  139.2989  162.4542 H       1  UNL1        0.1236
      9 C         143.7776  138.8692  160.8060 C.3     1  UNL1        0.0972
     10 C         142.3246  138.6099  161.0735 C.ar    1  UNL1        0.0135
     11 C         141.9180  137.7336  162.2210 C.ar    1  UNL1        0.0955
     12 N         140.4651  137.4742  162.4885 N.ar    1  UNL1       -0.2477
     13 C         139.4186  138.0912  161.6084 C.ar    1  UNL1        0.0689
     14 C         137.9657  137.8318  161.8759 C.3     1  UNL1        0.0528
     15 C         139.8252  138.9675  160.4609 C.ar    1  UNL1        0.0817
     16 C         141.2783  139.2268  160.1934 C.ar    1  UNL1        0.0101
     17 C         138.7789  139.5844  159.5809 C.1     1  UNL1        0.1016
     18 N         137.7325  140.2014  158.7008 N.1     1  UNL1       -0.1908
     19 O         144.2818  140.1316  164.6412 O.3     1  UNL1       -0.3508
     20 C         143.3688  139.1433  165.3042 C.3     1  UNL1        0.1741
     21 C         141.7647  144.6281  163.9737 C.3     1  UNL1        0.0970
     22 C         140.3498  144.5148  164.4587 C.3     1  UNL1        0.1264
     23 C         139.6386  140.7096  166.7532 C.ar    1  UNL1        0.1593
     24 C         138.7353  139.6524  166.1908 C.ar    1  UNL1        0.1357
     25 N         138.0691  139.8636  164.8635 N.ar    1  UNL1       -0.2392
     26 C         138.3061  141.1320  164.0987 C.ar    1  UNL1        0.0975
     27 C         137.6399  141.3431  162.7715 C.ar    1  UNL1        0.0255
     28 C         137.8770  142.6115  162.0066 C.ar    1  UNL1        0.0623
     29 C         138.7803  143.6688  162.5691 C.ar    1  UNL1        0.2611
     30 O         139.0174  144.9371  161.8042 O.2     1  UNL1       -0.2670
     31 N         139.4465  143.4576  163.8963 N.ar    1  UNL1       -0.2926
     32 C         139.2094  142.1892  164.6611 C.ar    1  UNL1        0.0832
     33 C         139.8756  141.9780  165.9884 C.ar    1  UNL1        0.0573
     34 C         139.4890  140.5084  169.3391 C.3     1  UNL1        0.2525
     35 O         140.3048  140.4985  168.0804 O.3     1  UNL1       -0.4698
@<TRIPOS>BOND
     1    34    35    1
     2    35    23    1
     3    23    24   ar
     4    24    25   ar
     5    25    26   ar
     6    26    27   ar
     7    27    28   ar
     8    28    29   ar
     9    29    30    2
    10    29    31   ar
    11    31    22    1
    12    22    21    1
    13    21     1    1
    14     1     2    1
    15     2     3    1
    16     3     4    1
    17     4     7    1
    18     7     9    1
    19     9    10    1
    20    10    11   ar
    21    11    12   ar
    22    12    13   ar
    23    13    14    1
    24    13    15   ar
    25    15    17    1
    26    17    18    3
    27    15    16   ar
    28     4     5    1
    29     5    19    1
    30    19    20    1
    31     5     6    1
    32    31    32   ar
    33    32    33   ar
    34    33    23   ar
    35    32    26   ar
    36     6     1    1
    37    16    10   ar
    38     7     8    1
@<TRIPOS>MOLECULE
*****
 35 38 0 0 0
SMALL
GASTEIGER

@<TRIPOS>ATOM
      1 N         138.0733  140.9087  163.6941 N.3     1  UNL1       -0.2689
      2 C         138.1802  142.0376  164.6761 C.3     1  UNL1        0.0737
      3 C         138.2623  143.4528  164.1859 C.3     1  UNL1        0.0356
      4 C         138.2376  143.7392  162.7138 C.3     1  UNL1        0.0845
      5 C         138.1307  142.6104  161.7318 C.3     1  UNL1        0.1455
      6 C         138.0486  141.1952  162.2219 C.3     1  UNL1        0.1034
      7 N         138.3197  145.1545  162.2236 N.3     1  UNL1       -0.2928
      8 H         137.6088  145.6830  162.7292 H       1  UNL1        0.1236
      9 C         139.6030  145.9202  162.3542 C.3     1  UNL1        0.0972
     10 C         140.9172  145.2054  162.2454 C.ar    1  UNL1        0.0135
     11 C         141.3693  144.6643  160.9215 C.ar    1  UNL1        0.0955
     12 N         142.6835  143.9495  160.8127 N.ar    1  UNL1       -0.2477
     13 C         143.5457  143.7758  162.0279 C.ar    1  UNL1        0.0689
     14 C         144.8599  143.0611  161.9191 C.3     1  UNL1        0.0528
     15 C         143.0936  144.3170  163.3518 C.ar    1  UNL1        0.0817
     16 C         141.7793  145.0318  163.4605 C.ar    1  UNL1        0.0101
     17 C         143.9557  144.1434  164.5669 C.1     1  UNL1        0.1016
     18 N         144.8179  143.9698  165.7821 N.1     1  UNL1       -0.1908
     19 O         138.1060  142.8969  160.2595 O.3     1  UNL1       -0.3508
     20 C         139.0271  142.1565  159.3358 C.3     1  UNL1        0.1741
     21 C         137.9912  139.4934  164.1843 C.3     1  UNL1        0.0970
     22 C         139.2466  138.7315  164.4898 C.3     1  UNL1        0.1264
     23 C         143.4037  139.6326  163.0211 C.ar    1  UNL1        0.1593
     24 C         144.4218  140.2099  163.9593 C.ar    1  UNL1        0.1357
     25 N         144.0543  140.4868  165.3869 N.ar    1  UNL1       -0.2392
     26 C         142.6687  140.1864  165.8765 C.ar    1  UNL1        0.0975
     27 C         142.3012  140.4633  167.3042 C.ar    1  UNL1        0.0255
     28 C         140.9155  140.1630  167.7937 C.ar    1  UNL1        0.0623
     29 C         139.8973  139.5857  166.8556 C.ar    1  UNL1        0.2611
     30 O         138.5116  139.2853  167.3451 O.2     1  UNL1       -0.2670
     31 N         140.2648  139.3088  165.4279 N.ar    1  UNL1       -0.2926
     32 C         141.6505  139.6092  164.9384 C.ar    1  UNL1        0.0832
     33 C         142.0180  139.3323  163.5107 C.ar    1  UNL1        0.0573
     34 C         143.9453  137.9416  161.1246 C.3     1  UNL1        0.2525
     35 O         143.7712  139.3557  161.5935 O.3     1  UNL1       -0.4698
@<TRIPOS>BOND
     1    34    35    1
     2    35    23    1
     3    23    24   ar
     4    24    25   ar
     5    25    26   ar
     6    26    27   ar
     7    27    28   ar
     8    28    29   ar
     9    29    30    2
    10    29    31   ar
    11    31    22    1
    12    22    21    1
    13    21     1    1
    14     1     2    1
    15     2     3    1
    16     3     4    1
    17     4     7    1
    18     7     9    1
    19     9    10    1
    20    10    11   ar
    21    11    12   ar
    22    12    13   ar
    23    13    14    1
    24    13    15   ar
    25    15    17    1
    26    17    18    3
    27    15    16   ar
    28     4     5    1
    29     5    19    1
    30    19    20    1
    31     5     6    1
    32    31    32   ar
    33    32    33   ar
    34    33    23   ar
    35    32    26   ar
    36     6     1    1
    37    16    10   ar
    38     7     8    1
