@<TRIPOS>MOLECULE
*****
 43 47 0 0 0
SMALL
GASTEIGER

@<TRIPOS>ATOM
      1 C         141.7099  140.8735  162.6506 C.3     1  UNL1        0.0807
      2 C         141.5801  140.6440  164.1273 C.ar    1  UNL1        0.0375
      3 C         141.2631  141.7917  165.0396 C.ar    1  UNL1        0.0023
      4 C         141.1333  141.5622  166.5163 C.ar    1  UNL1        0.0181
      5 C         140.8163  142.7099  167.4286 C.ar    1  UNL1        0.0082
      6 C         140.6865  142.4804  168.9052 C.ar    1  UNL1        0.0347
      7 BR        140.3695  143.6280  169.8176 Br      1  UNL1       -0.0490
      8 C         140.8736  141.1032  169.4695 C.ar    1  UNL1        0.0082
      9 C         141.1906  139.9556  168.5572 C.ar    1  UNL1        0.0197
     10 C         141.3204  140.1851  167.0806 C.ar    1  UNL1        0.0844
     11 N         141.6374  139.0374  166.1682 N.ar    1  UNL1       -0.2119
     12 C         141.7672  139.2669  164.6915 C.ar    1  UNL1        0.2211
     13 O         142.0842  138.1192  163.7791 O.3     1  UNL1       -0.4563
     14 C         141.0799  137.0239  163.5750 C.3     1  UNL1        0.2542
     15 C         140.8690  140.0836  161.6920 C.ar    1  UNL1        0.0215
     16 C         139.3896  139.9681  161.9115 C.ar    1  UNL1       -0.0007
     17 C         138.5486  139.1781  160.9529 C.ar    1  UNL1        0.0030
     18 C         139.1870  138.5037  159.7749 C.ar    1  UNL1        0.0402
     19 C         140.6665  138.6193  159.5555 C.ar    1  UNL1        0.1761
     20 C         141.5074  139.4092  160.5141 C.ar    1  UNL1        0.1728
     21 O         142.9301  139.3464  160.0430 O.3     1  UNL1       -0.4349
     22 C         142.9684  138.5177  158.7933 C.3     1  UNL1        0.4294
     23 O         141.5694  138.0683  158.4920 O.3     1  UNL1       -0.4346
     24 C         142.6807  141.8929  162.1325 C.3     1  UNL1        0.1160
     25 O         143.8208  141.0823  162.6737 O.3     1  UNL1       -0.3820
     26 H         144.6584  141.5291  162.4746 H       1  UNL1        0.2107
     27 C         139.3826  144.0955  161.9859 C.ar    1  UNL1        0.1070
     28 C         140.5227  143.2848  162.5272 C.ar    1  UNL1        0.0235
     29 C         141.5405  142.7036  161.5912 C.ar    1  UNL1        0.0064
     30 C         141.4182  142.9329  160.1139 C.ar    1  UNL1        0.0235
     31 C         140.2781  143.7436  159.5727 C.ar    1  UNL1        0.1070
     32 N         139.2603  144.3248  160.5087 N.ar    1  UNL1       -0.2330
     33 S         138.3647  144.6767  162.9220 S.3     1  UNL1       -0.0950
     34 C         138.5965  144.9226  165.4980 C.3     1  UNL1        0.0130
     35 C         138.2033  144.1088  164.3009 C.3     1  UNL1        0.0637
     36 S         140.1558  143.9730  158.0953 S.3     1  UNL1       -0.0950
     37 C         140.3696  145.3455  157.5292 C.3     1  UNL1        0.0637
     38 C         141.7416  145.9517  157.5298 C.3     1  UNL1        0.0130
     39 C         143.6514  142.9123  161.6144 C.3     1  UNL1        0.0491
     40 C         144.5898  143.6026  162.5594 C.3     1  UNL1        0.0750
     41 N         144.0871  144.1099  163.8785 N.3     1  UNL1       -0.2702
     42 C         143.1339  145.2671  163.9230 C.3     1  UNL1        0.0897
     43 C         144.5377  143.4599  165.1530 C.3     1  UNL1        0.0897
@<TRIPOS>BOND
     1    34    35    1
     2    35    33    1
     3    33    27    1
     4    27    28   ar
     5    28    29   ar
     6    29    24    1
     7    24    25    1
     8    24    39    1
     9    39    40    1
    10    40    41    1
    11    41    42    1
    12    41    43    1
    13    24     1    1
    14     1     2    1
    15     2     3   ar
    16     3     4   ar
    17     4     5   ar
    18     5     6   ar
    19     6     7    1
    20     6     8   ar
    21     8     9   ar
    22     9    10   ar
    23    10    11   ar
    24    11    12   ar
    25    12    13    1
    26    13    14    1
    27     1    15    1
    28    15    16   ar
    29    16    17   ar
    30    17    18   ar
    31    18    19   ar
    32    19    20   ar
    33    20    21    1
    34    21    22    1
    35    22    23    1
    36    29    30   ar
    37    30    31   ar
    38    31    36    1
    39    36    37    1
    40    37    38    1
    41    31    32   ar
    42    32    27   ar
    43    12     2   ar
    44    20    15   ar
    45    10     4   ar
    46    23    19    1
    47    25    26    1
@<TRIPOS>MOLECULE
*****
 43 47 0 0 0
SMALL
GASTEIGER

@<TRIPOS>ATOM
      1 C         141.7142  140.9052  162.6703 C.3     1  UNL1        0.0807
      2 C         141.5832  140.6736  164.1466 C.ar    1  UNL1        0.0375
      3 C         141.2634  141.8195  165.0601 C.ar    1  UNL1        0.0023
      4 C         141.1324  141.5879  166.5364 C.ar    1  UNL1        0.0181
      5 C         140.8126  142.7339  167.4498 C.ar    1  UNL1        0.0082
      6 C         140.6816  142.5022  168.9260 C.ar    1  UNL1        0.0347
      7 BR        140.3618  143.6482  169.8396 Br      1  UNL1       -0.0490
      8 C         140.8704  141.1246  169.4887 C.ar    1  UNL1        0.0082
      9 C         141.1902  139.9787  168.5752 C.ar    1  UNL1        0.0197
     10 C         141.3212  140.2103  167.0990 C.ar    1  UNL1        0.0844
     11 N         141.6410  139.0644  166.1855 N.ar    1  UNL1       -0.2119
     12 C         141.7720  139.2960  164.7093 C.ar    1  UNL1        0.2211
     13 O         142.0918  138.1500  163.7957 O.3     1  UNL1       -0.4563
     14 C         141.0998  137.0406  163.6087 C.3     1  UNL1        0.2542
     15 C         140.8843  140.1068  161.7093 C.ar    1  UNL1        0.0215
     16 C         139.4025  139.9931  161.9129 C.ar    1  UNL1       -0.0007
     17 C         138.5725  139.1946  160.9519 C.ar    1  UNL1        0.0030
     18 C         139.2242  138.5099  159.7873 C.ar    1  UNL1        0.0402
     19 C         140.7060  138.6236  159.5837 C.ar    1  UNL1        0.1761
     20 C         141.5360  139.4220  160.5447 C.ar    1  UNL1        0.1728
     21 O         142.9640  139.3552  160.0904 O.3     1  UNL1       -0.4349
     22 C         143.0165  138.5154  158.8486 C.3     1  UNL1        0.4294
     23 O         141.6210  138.0633  158.5355 O.3     1  UNL1       -0.4346
     24 C         142.6753  141.9353  162.1552 C.3     1  UNL1        0.1160
     25 O         143.8231  141.1338  162.6937 O.3     1  UNL1       -0.3820
     26 H         144.6564  141.5890  162.4957 H       1  UNL1        0.2107
     27 C         140.2114  143.7060  159.5970 C.ar    1  UNL1        0.1070
     28 C         141.3593  142.9044  160.1356 C.ar    1  UNL1        0.0235
     29 C         141.5274  142.7368  161.6166 C.ar    1  UNL1        0.0064
     30 C         140.5478  143.3707  162.5591 C.ar    1  UNL1        0.0235
     31 C         139.3999  144.1723  162.0206 C.ar    1  UNL1        0.1070
     32 N         139.2318  144.3399  160.5395 N.ar    1  UNL1       -0.2330
     33 S         140.0433  143.8736  158.1159 S.3     1  UNL1       -0.0950
     34 C         138.4181  141.8498  158.0021 C.3     1  UNL1        0.0130
     35 C         138.9895  143.0931  157.3876 C.3     1  UNL1        0.0637
     36 S         138.4202  144.8062  162.9632 S.3     1  UNL1       -0.0950
     37 C         138.1517  144.1793  164.2992 C.3     1  UNL1        0.0637
     38 C         138.5476  144.8948  165.5566 C.3     1  UNL1        0.0130
     39 C         143.6363  142.9654  161.6400 C.3     1  UNL1        0.0491
     40 C         144.5846  143.6444  162.5831 C.3     1  UNL1        0.0750
     41 N         144.0904  144.1586  163.9027 N.3     1  UNL1       -0.2702
     42 C         144.5248  143.4956  165.1762 C.3     1  UNL1        0.0897
     43 C         143.1618  145.3356  163.9489 C.3     1  UNL1        0.0897
@<TRIPOS>BOND
     1    34    35    1
     2    35    33    1
     3    33    27    1
     4    27    28   ar
     5    28    29   ar
     6    29    24    1
     7    24    25    1
     8    24    39    1
     9    39    40    1
    10    40    41    1
    11    41    42    1
    12    41    43    1
    13    24     1    1
    14     1     2    1
    15     2     3   ar
    16     3     4   ar
    17     4     5   ar
    18     5     6   ar
    19     6     7    1
    20     6     8   ar
    21     8     9   ar
    22     9    10   ar
    23    10    11   ar
    24    11    12   ar
    25    12    13    1
    26    13    14    1
    27     1    15    1
    28    15    16   ar
    29    16    17   ar
    30    17    18   ar
    31    18    19   ar
    32    19    20   ar
    33    20    21    1
    34    21    22    1
    35    22    23    1
    36    29    30   ar
    37    30    31   ar
    38    31    36    1
    39    36    37    1
    40    37    38    1
    41    31    32   ar
    42    32    27   ar
    43    12     2   ar
    44    20    15   ar
    45    10     4   ar
    46    23    19    1
    47    25    26    1
@<TRIPOS>MOLECULE
*****
 43 47 0 0 0
SMALL
GASTEIGER

@<TRIPOS>ATOM
      1 C         141.8300  140.6738  163.3903 C.3     1  UNL1        0.0807
      2 C         142.0073  140.7510  164.8778 C.ar    1  UNL1        0.0375
      3 C         141.2408  141.7661  165.6728 C.ar    1  UNL1        0.0023
      4 C         141.4181  141.8433  167.1603 C.ar    1  UNL1        0.0181
      5 C         140.6516  142.8584  167.9553 C.ar    1  UNL1        0.0082
      6 C         140.8289  142.9356  169.4427 C.ar    1  UNL1        0.0347
      7 BR        140.0624  143.9507  170.2378 Br      1  UNL1       -0.0490
      8 C         141.7727  141.9976  170.1352 C.ar    1  UNL1        0.0082
      9 C         142.5392  140.9825  169.3402 C.ar    1  UNL1        0.0197
     10 C         142.3619  140.9054  167.8528 C.ar    1  UNL1        0.0844
     11 N         143.1284  139.8902  167.0577 N.ar    1  UNL1       -0.2119
     12 C         142.9511  139.8131  165.5703 C.ar    1  UNL1        0.2211
     13 O         143.7176  138.7979  164.7752 O.3     1  UNL1       -0.4563
     14 C         145.1036  139.1121  164.2953 C.3     1  UNL1        0.2542
     15 C         142.8045  141.3633  162.4820 C.ar    1  UNL1        0.0215
     16 C         143.3902  140.6275  161.3135 C.ar    1  UNL1       -0.0007
     17 C         144.3648  141.3170  160.4052 C.ar    1  UNL1        0.0030
     18 C         144.7536  142.7421  160.6655 C.ar    1  UNL1        0.0402
     19 C         144.1678  143.4779  161.8341 C.ar    1  UNL1        0.1761
     20 C         143.1933  142.7884  162.7424 C.ar    1  UNL1        0.1728
     21 O         142.7840  143.7619  163.8076 O.3     1  UNL1       -0.4349
     22 C         143.5056  145.0530  163.5577 C.3     1  UNL1        0.4294
     23 O         144.3609  144.8774  162.3380 O.3     1  UNL1       -0.4346
     24 C         140.6781  139.9072  162.8110 C.3     1  UNL1        0.1160
     25 O         141.2380  138.6368  163.3790 O.3     1  UNL1       -0.3820
     26 H         140.6565  137.8956  163.1483 H       1  UNL1        0.2107
     27 C         138.9992  143.4964  162.5905 C.ar    1  UNL1        0.1070
     28 C         139.5591  142.2260  163.1585 C.ar    1  UNL1        0.0235
     29 C         140.1182  141.1776  162.2431 C.ar    1  UNL1        0.0064
     30 C         140.1173  141.3995  160.7596 C.ar    1  UNL1        0.0235
     31 C         139.5574  142.6699  160.1916 C.ar    1  UNL1        0.1070
     32 N         138.9983  143.7183  161.1071 N.ar    1  UNL1       -0.2330
     33 S         138.4401  144.5449  163.5061 S.3     1  UNL1       -0.0950
     34 C         138.3273  145.1514  166.0299 C.3     1  UNL1        0.0130
     35 C         139.1330  144.8583  164.7991 C.3     1  UNL1        0.0637
     36 S         139.5566  142.8918  158.7081 S.3     1  UNL1       -0.0950
     37 C         140.8271  143.2686  158.0054 C.3     1  UNL1        0.0637
     38 C         141.8859  144.0423  158.7337 C.3     1  UNL1        0.0130
     39 C         139.5263  139.1405  162.2318 C.3     1  UNL1        0.0491
     40 C         138.3259  138.8370  163.0785 C.3     1  UNL1        0.0750
     41 N         138.4742  138.6866  164.5635 N.3     1  UNL1       -0.2702
     42 C         138.2002  139.8526  165.4665 C.3     1  UNL1        0.0897
     43 C         138.8963  137.3702  165.1456 C.3     1  UNL1        0.0897
@<TRIPOS>BOND
     1    34    35    1
     2    35    33    1
     3    33    27    1
     4    27    28   ar
     5    28    29   ar
     6    29    24    1
     7    24    25    1
     8    24    39    1
     9    39    40    1
    10    40    41    1
    11    41    42    1
    12    41    43    1
    13    24     1    1
    14     1     2    1
    15     2     3   ar
    16     3     4   ar
    17     4     5   ar
    18     5     6   ar
    19     6     7    1
    20     6     8   ar
    21     8     9   ar
    22     9    10   ar
    23    10    11   ar
    24    11    12   ar
    25    12    13    1
    26    13    14    1
    27     1    15    1
    28    15    16   ar
    29    16    17   ar
    30    17    18   ar
    31    18    19   ar
    32    19    20   ar
    33    20    21    1
    34    21    22    1
    35    22    23    1
    36    29    30   ar
    37    30    31   ar
    38    31    36    1
    39    36    37    1
    40    37    38    1
    41    31    32   ar
    42    32    27   ar
    43    12     2   ar
    44    20    15   ar
    45    10     4   ar
    46    23    19    1
    47    25    26    1
@<TRIPOS>MOLECULE
*****
 43 47 0 0 0
SMALL
GASTEIGER

@<TRIPOS>ATOM
      1 C         140.4320  141.3806  161.5552 C.3     1  UNL1        0.0807
      2 C         140.1122  140.9573  162.9582 C.ar    1  UNL1        0.0375
      3 C         141.1127  141.1762  164.0541 C.ar    1  UNL1        0.0023
      4 C         140.7929  140.7528  165.4572 C.ar    1  UNL1        0.0181
      5 C         141.7934  140.9717  166.5531 C.ar    1  UNL1        0.0082
      6 C         141.4736  140.5483  167.9561 C.ar    1  UNL1        0.0347
      7 BR        142.4741  140.7672  169.0521 Br      1  UNL1       -0.0490
      8 C         140.1533  139.9060  168.2632 C.ar    1  UNL1        0.0082
      9 C         139.1528  139.6872  167.1673 C.ar    1  UNL1        0.0197
     10 C         139.4726  140.1105  165.7643 C.ar    1  UNL1        0.0844
     11 N         138.4721  139.8916  164.6683 N.ar    1  UNL1       -0.2119
     12 C         138.7919  140.3150  163.2653 C.ar    1  UNL1        0.2211
     13 O         137.7914  140.0961  162.1693 O.3     1  UNL1       -0.4563
     14 C         137.5691  138.7177  161.6210 C.3     1  UNL1        0.2542
     15 C         140.6486  140.3464  160.4906 C.ar    1  UNL1        0.0215
     16 C         139.7940  140.3485  159.2579 C.ar    1  UNL1       -0.0007
     17 C         140.0106  139.3142  158.1933 C.ar    1  UNL1        0.0030
     18 C         141.0818  138.2778  158.3614 C.ar    1  UNL1        0.0402
     19 C         141.9364  138.2756  159.5942 C.ar    1  UNL1        0.1761
     20 C         141.7198  139.3099  160.6588 C.ar    1  UNL1        0.1728
     21 O         142.7103  139.0592  161.7570 O.3     1  UNL1       -0.4349
     22 C         143.5390  137.8700  161.3711 C.3     1  UNL1        0.4294
     23 O         143.0607  137.3857  160.0344 O.3     1  UNL1       -0.4346
     24 C         140.5351  142.8383  161.2167 C.3     1  UNL1        0.1160
     25 O         139.0651  143.0005  161.4671 O.3     1  UNL1       -0.3820
     26 H         138.8111  143.9242  161.3148 H       1  UNL1        0.2107
     27 C         144.0088  142.5768  159.3154 C.ar    1  UNL1        0.1070
     28 C         142.5388  142.7390  159.5658 C.ar    1  UNL1        0.0235
     29 C         142.0052  142.6761  160.9663 C.ar    1  UNL1        0.0064
     30 C         142.9416  142.4511  162.1162 C.ar    1  UNL1        0.0235
     31 C         144.4116  142.2889  161.8658 C.ar    1  UNL1        0.1070
     32 N         144.9452  142.3518  160.4654 N.ar    1  UNL1       -0.2330
     33 S         144.5425  142.6397  157.9149 S.3     1  UNL1       -0.0950
     34 C         144.0399  140.2165  157.1240 C.3     1  UNL1        0.0130
     35 C         144.9778  141.3831  157.2211 C.3     1  UNL1        0.0637
     36 S         145.3480  142.0639  163.0159 S.3     1  UNL1       -0.0950
     37 C         144.8786  141.3193  164.2305 C.3     1  UNL1        0.0637
     38 C         144.9817  139.8237  164.2798 C.3     1  UNL1        0.0130
     39 C         140.6383  144.2960  160.8783 C.3     1  UNL1        0.0491
     40 C         140.2335  145.3304  161.8862 C.3     1  UNL1        0.0750
     41 N         140.5980  145.1534  163.3304 N.3     1  UNL1       -0.2702
     42 C         142.0066  145.3988  163.7839 C.3     1  UNL1        0.0897
     43 C         139.5540  144.7311  164.3211 C.3     1  UNL1        0.0897
@<TRIPOS>BOND
     1    34    35    1
     2    35    33    1
     3    33    27    1
     4    27    28   ar
     5    28    29   ar
     6    29    24    1
     7    24    25    1
     8    24    39    1
     9    39    40    1
    10    40    41    1
    11    41    42    1
    12    41    43    1
    13    24     1    1
    14     1     2    1
    15     2     3   ar
    16     3     4   ar
    17     4     5   ar
    18     5     6   ar
    19     6     7    1
    20     6     8   ar
    21     8     9   ar
    22     9    10   ar
    23    10    11   ar
    24    11    12   ar
    25    12    13    1
    26    13    14    1
    27     1    15    1
    28    15    16   ar
    29    16    17   ar
    30    17    18   ar
    31    18    19   ar
    32    19    20   ar
    33    20    21    1
    34    21    22    1
    35    22    23    1
    36    29    30   ar
    37    30    31   ar
    38    31    36    1
    39    36    37    1
    40    37    38    1
    41    31    32   ar
    42    32    27   ar
    43    12     2   ar
    44    20    15   ar
    45    10     4   ar
    46    23    19    1
    47    25    26    1
@<TRIPOS>MOLECULE
*****
 43 47 0 0 0
SMALL
GASTEIGER

@<TRIPOS>ATOM
      1 C         142.2504  141.7736  163.0888 C.3     1  UNL1        0.0807
      2 C         142.5119  141.9327  164.5573 C.ar    1  UNL1        0.0375
      3 C         141.7223  141.1328  165.5506 C.ar    1  UNL1        0.0023
      4 C         141.9838  141.2919  167.0191 C.ar    1  UNL1        0.0181
      5 C         141.1942  140.4920  168.0124 C.ar    1  UNL1        0.0082
      6 C         141.4557  140.6512  169.4808 C.ar    1  UNL1        0.0347
      7 BR        140.6661  139.8513  170.4743 Br      1  UNL1       -0.0490
      8 C         142.5067  141.6101  169.9559 C.ar    1  UNL1        0.0082
      9 C         143.2963  142.4100  168.9626 C.ar    1  UNL1        0.0197
     10 C         143.0348  142.2509  167.4942 C.ar    1  UNL1        0.0844
     11 N         143.8244  143.0508  166.5007 N.ar    1  UNL1       -0.2119
     12 C         143.5629  142.8917  165.0323 C.ar    1  UNL1        0.2211
     13 O         144.3525  143.6916  164.0389 O.3     1  UNL1       -0.4563
     14 C         143.9553  145.1043  163.7282 C.3     1  UNL1        0.2542
     15 C         141.4829  142.8262  162.3453 C.ar    1  UNL1        0.0215
     16 C         142.1195  143.5454  161.1932 C.ar    1  UNL1       -0.0007
     17 C         141.3520  144.5981  160.4497 C.ar    1  UNL1        0.0030
     18 C         139.9477  144.9315  160.8582 C.ar    1  UNL1        0.0402
     19 C         139.3110  144.2121  162.0103 C.ar    1  UNL1        0.1761
     20 C         140.0786  143.1595  162.7538 C.ar    1  UNL1        0.1728
     21 O         139.1951  142.6224  163.8405 O.3     1  UNL1       -0.4349
     22 C         137.8815  143.3430  163.7686 C.3     1  UNL1        0.4294
     23 O         137.9532  144.3255  162.6375 O.3     1  UNL1       -0.4346
     24 C         142.7566  140.5619  162.3638 C.3     1  UNL1        0.1160
     25 O         144.1422  141.1364  162.3710 O.3     1  UNL1       -0.3820
     26 H         144.7495  140.5215  161.9306 H       1  UNL1        0.2107
     27 C         139.5173  138.5694  163.4981 C.ar    1  UNL1        0.1070
     28 C         140.9029  139.1439  163.5053 C.ar    1  UNL1        0.0235
     29 C         141.3710  139.9874  162.3567 C.ar    1  UNL1        0.0064
     30 C         140.4535  140.2563  161.2009 C.ar    1  UNL1        0.0235
     31 C         139.0680  139.6818  161.1937 C.ar    1  UNL1        0.1070
     32 N         138.5998  138.8383  162.3423 N.ar    1  UNL1       -0.2330
     33 S         139.0491  137.7259  164.6468 S.3     1  UNL1       -0.0950
     34 C         138.2198  139.8592  165.8762 C.3     1  UNL1        0.0130
     35 C         138.3792  138.3686  165.8251 C.3     1  UNL1        0.0637
     36 S         138.1505  139.9508  160.0378 S.3     1  UNL1       -0.0950
     37 C         138.6414  140.7353  158.8574 C.3     1  UNL1        0.0637
     38 C         138.4653  142.2245  158.8209 C.3     1  UNL1        0.0130
     39 C         143.2628  139.3502  161.6389 C.3     1  UNL1        0.0491
     40 C         144.0735  139.5094  160.3870 C.3     1  UNL1        0.0750
     41 N         143.4731  139.1663  159.0559 N.3     1  UNL1       -0.2702
     42 C         143.7365  140.0414  157.8664 C.3     1  UNL1        0.0897
     43 C         142.6094  137.9483  158.9142 C.3     1  UNL1        0.0897
@<TRIPOS>BOND
     1    34    35    1
     2    35    33    1
     3    33    27    1
     4    27    28   ar
     5    28    29   ar
     6    29    24    1
     7    24    25    1
     8    24    39    1
     9    39    40    1
    10    40    41    1
    11    41    42    1
    12    41    43    1
    13    24     1    1
    14     1     2    1
    15     2     3   ar
    16     3     4   ar
    17     4     5   ar
    18     5     6   ar
    19     6     7    1
    20     6     8   ar
    21     8     9   ar
    22     9    10   ar
    23    10    11   ar
    24    11    12   ar
    25    12    13    1
    26    13    14    1
    27     1    15    1
    28    15    16   ar
    29    16    17   ar
    30    17    18   ar
    31    18    19   ar
    32    19    20   ar
    33    20    21    1
    34    21    22    1
    35    22    23    1
    36    29    30   ar
    37    30    31   ar
    38    31    36    1
    39    36    37    1
    40    37    38    1
    41    31    32   ar
    42    32    27   ar
    43    12     2   ar
    44    20    15   ar
    45    10     4   ar
    46    23    19    1
    47    25    26    1
@<TRIPOS>MOLECULE
*****
 43 47 0 0 0
SMALL
GASTEIGER

@<TRIPOS>ATOM
      1 C         140.5730  140.6404  162.7383 C.3     1  UNL1        0.0807
      2 C         140.3770  140.4805  164.2169 C.ar    1  UNL1        0.0375
      3 C         140.5377  141.6620  165.1269 C.ar    1  UNL1        0.0023
      4 C         140.3417  141.5020  166.6055 C.ar    1  UNL1        0.0181
      5 C         140.5024  142.6835  167.5155 C.ar    1  UNL1        0.0082
      6 C         140.3064  142.5235  168.9940 C.ar    1  UNL1        0.0347
      7 BR        140.4671  143.7051  169.9041 Br      1  UNL1       -0.0490
      8 C         139.9496  141.1820  169.5624 C.ar    1  UNL1        0.0082
      9 C         139.7889  140.0006  168.6524 C.ar    1  UNL1        0.0197
     10 C         139.9849  140.1605  167.1739 C.ar    1  UNL1        0.0844
     11 N         139.8242  138.9790  166.2638 N.ar    1  UNL1       -0.2119
     12 C         140.0202  139.1390  164.7853 C.ar    1  UNL1        0.2211
     13 O         139.8595  137.9575  163.8752 O.3     1  UNL1       -0.4563
     14 C         138.5443  137.7046  163.1996 C.3     1  UNL1        0.2542
     15 C         141.5284  139.7445  162.0072 C.ar    1  UNL1        0.0215
     16 C         142.8758  139.4461  162.5949 C.ar    1  UNL1       -0.0007
     17 C         143.8312  138.5502  161.8638 C.ar    1  UNL1        0.0030
     18 C         143.4392  137.9527  160.5449 C.ar    1  UNL1        0.0402
     19 C         142.0917  138.2512  159.9572 C.ar    1  UNL1        0.1761
     20 C         141.1364  139.1471  160.6884 C.ar    1  UNL1        0.1728
     21 O         139.8860  139.2597  159.8674 O.3     1  UNL1       -0.4349
     22 C         140.0687  138.4334  158.6289 C.3     1  UNL1        0.4294
     23 O         141.4319  137.8101  158.6844 O.3     1  UNL1       -0.4346
     24 C         139.8137  141.6963  161.9910 C.3     1  UNL1        0.1160
     25 O         138.5319  140.9653  162.2607 O.3     1  UNL1       -0.3820
     26 H         137.7926  141.4515  161.8631 H       1  UNL1        0.2107
     27 C         142.9497  143.1821  160.0655 C.ar    1  UNL1        0.1070
     28 C         141.6679  142.4511  160.3351 C.ar    1  UNL1        0.0235
     29 C         141.0954  142.4273  161.7213 C.ar    1  UNL1        0.0064
     30 C         141.8048  143.1344  162.8379 C.ar    1  UNL1        0.0235
     31 C         143.0865  143.8654  162.5683 C.ar    1  UNL1        0.1070
     32 N         143.6590  143.8892  161.1820 N.ar    1  UNL1       -0.2330
     33 S         143.5221  143.2059  158.6791 S.3     1  UNL1       -0.0950
     34 C         144.2027  140.7496  158.1761 C.3     1  UNL1        0.0130
     35 C         144.5627  142.2020  158.2801 C.3     1  UNL1        0.0637
     36 S         143.7959  144.5725  163.6849 S.3     1  UNL1       -0.0950
     37 C         144.5058  143.7808  164.7428 C.3     1  UNL1        0.0637
     38 C         144.1971  142.3240  164.9232 C.3     1  UNL1        0.0130
     39 C         139.0543  142.7522  161.2437 C.3     1  UNL1        0.0491
     40 C         138.1921  143.7262  161.9905 C.3     1  UNL1        0.0750
     41 N         138.8234  144.8301  162.7859 N.3     1  UNL1       -0.2702
     42 C         138.7675  144.8014  164.2846 C.3     1  UNL1        0.0897
     43 C         139.5107  145.9628  162.0827 C.3     1  UNL1        0.0897
@<TRIPOS>BOND
     1    34    35    1
     2    35    33    1
     3    33    27    1
     4    27    28   ar
     5    28    29   ar
     6    29    24    1
     7    24    25    1
     8    24    39    1
     9    39    40    1
    10    40    41    1
    11    41    42    1
    12    41    43    1
    13    24     1    1
    14     1     2    1
    15     2     3   ar
    16     3     4   ar
    17     4     5   ar
    18     5     6   ar
    19     6     7    1
    20     6     8   ar
    21     8     9   ar
    22     9    10   ar
    23    10    11   ar
    24    11    12   ar
    25    12    13    1
    26    13    14    1
    27     1    15    1
    28    15    16   ar
    29    16    17   ar
    30    17    18   ar
    31    18    19   ar
    32    19    20   ar
    33    20    21    1
    34    21    22    1
    35    22    23    1
    36    29    30   ar
    37    30    31   ar
    38    31    36    1
    39    36    37    1
    40    37    38    1
    41    31    32   ar
    42    32    27   ar
    43    12     2   ar
    44    20    15   ar
    45    10     4   ar
    46    23    19    1
    47    25    26    1
@<TRIPOS>MOLECULE
*****
 43 47 0 0 0
SMALL
GASTEIGER

@<TRIPOS>ATOM
      1 C         140.3553  141.3901  161.5931 C.3     1  UNL1        0.0807
      2 C         140.0707  140.9654  163.0033 C.ar    1  UNL1        0.0375
      3 C         141.0776  141.2288  164.0835 C.ar    1  UNL1        0.0023
      4 C         140.7931  140.8041  165.4938 C.ar    1  UNL1        0.0181
      5 C         141.7999  141.0674  166.5740 C.ar    1  UNL1        0.0082
      6 C         141.5154  140.6427  167.9841 C.ar    1  UNL1        0.0347
      7 BR        142.5222  140.9060  169.0644 Br      1  UNL1       -0.0490
      8 C         140.2240  139.9546  168.3141 C.ar    1  UNL1        0.0082
      9 C         139.2171  139.6913  167.2339 C.ar    1  UNL1        0.0197
     10 C         139.5017  140.1160  165.8238 C.ar    1  UNL1        0.0844
     11 N         138.4948  139.8527  164.7435 N.ar    1  UNL1       -0.2119
     12 C         138.7793  140.2774  163.3333 C.ar    1  UNL1        0.2211
     13 O         137.7725  140.0140  162.2530 O.3     1  UNL1       -0.4563
     14 C         137.6073  138.6281  161.7035 C.3     1  UNL1        0.2542
     15 C         140.5796  140.3567  160.5293 C.ar    1  UNL1        0.0215
     16 C         139.7186  140.3454  159.3012 C.ar    1  UNL1       -0.0007
     17 C         139.9429  139.3119  158.2374 C.ar    1  UNL1        0.0030
     18 C         141.0283  138.2897  158.4018 C.ar    1  UNL1        0.0402
     19 C         141.8893  138.3010  159.6301 C.ar    1  UNL1        0.1761
     20 C         141.6650  139.3345  160.6938 C.ar    1  UNL1        0.1728
     21 O         142.6644  139.0987  161.7872 O.3     1  UNL1       -0.4349
     22 C         143.5064  137.9195  161.3992 C.3     1  UNL1        0.4294
     23 O         143.0274  137.4265  160.0660 O.3     1  UNL1       -0.4346
     24 C         140.4154  142.8484  161.2466 C.3     1  UNL1        0.1160
     25 O         138.9579  142.9861  161.5734 O.3     1  UNL1       -0.3820
     26 H         138.6805  143.9049  161.4327 H       1  UNL1        0.2107
     27 C         144.3262  142.3394  161.6902 C.ar    1  UNL1        0.1070
     28 C         142.8687  142.4771  162.0170 C.ar    1  UNL1        0.0235
     29 C         141.8729  142.7106  160.9199 C.ar    1  UNL1        0.0064
     30 C         142.3346  142.8063  159.4959 C.ar    1  UNL1        0.0235
     31 C         143.7920  142.6685  159.1691 C.ar    1  UNL1        0.1070
     32 N         144.7878  142.4351  160.2663 N.ar    1  UNL1       -0.2330
     33 S         145.3220  142.1059  162.7875 S.3     1  UNL1       -0.0950
     34 C         144.9792  139.9774  164.2372 C.3     1  UNL1        0.0130
     35 C         144.8863  141.4653  164.0719 C.3     1  UNL1        0.0637
     36 S         144.2537  142.7642  157.7451 S.3     1  UNL1       -0.0950
     37 C         145.5338  142.1044  157.3257 C.3     1  UNL1        0.0637
     38 C         145.5026  140.9374  156.3839 C.3     1  UNL1        0.0130
     39 C         140.4756  144.3066  160.9002 C.3     1  UNL1        0.0491
     40 C         140.1102  145.3371  161.9271 C.3     1  UNL1        0.0750
     41 N         140.5180  145.1475  163.3580 N.3     1  UNL1       -0.2702
     42 C         141.9440  145.3693  163.7672 C.3     1  UNL1        0.0897
     43 C         139.4999  144.7360  164.3799 C.3     1  UNL1        0.0897
@<TRIPOS>BOND
     1    34    35    1
     2    35    33    1
     3    33    27    1
     4    27    28   ar
     5    28    29   ar
     6    29    24    1
     7    24    25    1
     8    24    39    1
     9    39    40    1
    10    40    41    1
    11    41    42    1
    12    41    43    1
    13    24     1    1
    14     1     2    1
    15     2     3   ar
    16     3     4   ar
    17     4     5   ar
    18     5     6   ar
    19     6     7    1
    20     6     8   ar
    21     8     9   ar
    22     9    10   ar
    23    10    11   ar
    24    11    12   ar
    25    12    13    1
    26    13    14    1
    27     1    15    1
    28    15    16   ar
    29    16    17   ar
    30    17    18   ar
    31    18    19   ar
    32    19    20   ar
    33    20    21    1
    34    21    22    1
    35    22    23    1
    36    29    30   ar
    37    30    31   ar
    38    31    36    1
    39    36    37    1
    40    37    38    1
    41    31    32   ar
    42    32    27   ar
    43    12     2   ar
    44    20    15   ar
    45    10     4   ar
    46    23    19    1
    47    25    26    1
@<TRIPOS>MOLECULE
*****
 43 47 0 0 0
SMALL
GASTEIGER

@<TRIPOS>ATOM
      1 C         141.8094  140.6420  163.4327 C.3     1  UNL1        0.0807
      2 C         142.0021  140.7530  164.9162 C.ar    1  UNL1        0.0375
      3 C         141.2186  141.7632  165.7007 C.ar    1  UNL1        0.0023
      4 C         141.4112  141.8742  167.1842 C.ar    1  UNL1        0.0181
      5 C         140.6277  142.8844  167.9688 C.ar    1  UNL1        0.0082
      6 C         140.8204  142.9954  169.4521 C.ar    1  UNL1        0.0347
      7 BR        140.0368  144.0056  170.2368 Br      1  UNL1       -0.0490
      8 C         141.7967  142.0962  170.1510 C.ar    1  UNL1        0.0082
      9 C         142.5802  141.0860  169.3664 C.ar    1  UNL1        0.0197
     10 C         142.3875  140.9750  167.8830 C.ar    1  UNL1        0.0844
     11 N         143.1711  139.9648  167.0984 N.ar    1  UNL1       -0.2119
     12 C         142.9784  139.8538  165.6150 C.ar    1  UNL1        0.2211
     13 O         143.7620  138.8436  164.8304 O.3     1  UNL1       -0.4563
     14 C         145.1284  139.1888  164.3168 C.3     1  UNL1        0.2542
     15 C         142.7643  141.3250  162.4992 C.ar    1  UNL1        0.0215
     16 C         143.3171  140.5844  161.3177 C.ar    1  UNL1       -0.0007
     17 C         144.2721  141.2675  160.3841 C.ar    1  UNL1        0.0030
     18 C         144.6742  142.6911  160.6320 C.ar    1  UNL1        0.0402
     19 C         144.1213  143.4318  161.8135 C.ar    1  UNL1        0.1761
     20 C         143.1664  142.7487  162.7471 C.ar    1  UNL1        0.1728
     21 O         142.7886  143.7261  163.8204 O.3     1  UNL1       -0.4349
     22 C         143.5100  145.0131  163.5502 C.3     1  UNL1        0.4294
     23 O         144.3337  144.8312  162.3098 O.3     1  UNL1       -0.4346
     24 C         140.6618  139.8479  162.8829 C.3     1  UNL1        0.1160
     25 O         141.2502  138.5959  163.4628 O.3     1  UNL1       -0.3820
     26 H         140.6774  137.8419  163.2525 H       1  UNL1        0.2107
     27 C         139.4581  142.5492  160.2364 C.ar    1  UNL1        0.1070
     28 C         140.0465  141.2972  160.8163 C.ar    1  UNL1        0.0235
     29 C         140.0733  141.0998  162.3030 C.ar    1  UNL1        0.0064
     30 C         139.5116  142.1544  163.2097 C.ar    1  UNL1        0.0235
     31 C         138.9232  143.4064  162.6298 C.ar    1  UNL1        0.1070
     32 N         138.8964  143.6038  161.1432 N.ar    1  UNL1       -0.2330
     33 S         139.4313  142.7465  158.7496 S.3     1  UNL1       -0.0950
     34 C         137.5088  141.9251  157.2071 C.3     1  UNL1        0.0130
     35 C         138.8372  141.6920  157.8636 C.3     1  UNL1        0.0637
     36 S         138.3614  144.4610  163.5367 S.3     1  UNL1       -0.0950
     37 C         139.1212  144.8803  164.7602 C.3     1  UNL1        0.0637
     38 C         138.3881  145.1648  166.0375 C.3     1  UNL1        0.0130
     39 C         139.5142  139.0538  162.3330 C.3     1  UNL1        0.0491
     40 C         138.3042  138.7979  163.1819 C.3     1  UNL1        0.0750
     41 N         138.4517  138.6212  164.6641 N.3     1  UNL1       -0.2702
     42 C         138.2151  139.7814  165.5849 C.3     1  UNL1        0.0897
     43 C         138.8358  137.2843  165.2256 C.3     1  UNL1        0.0897
@<TRIPOS>BOND
     1    34    35    1
     2    35    33    1
     3    33    27    1
     4    27    28   ar
     5    28    29   ar
     6    29    24    1
     7    24    25    1
     8    24    39    1
     9    39    40    1
    10    40    41    1
    11    41    42    1
    12    41    43    1
    13    24     1    1
    14     1     2    1
    15     2     3   ar
    16     3     4   ar
    17     4     5   ar
    18     5     6   ar
    19     6     7    1
    20     6     8   ar
    21     8     9   ar
    22     9    10   ar
    23    10    11   ar
    24    11    12   ar
    25    12    13    1
    26    13    14    1
    27     1    15    1
    28    15    16   ar
    29    16    17   ar
    30    17    18   ar
    31    18    19   ar
    32    19    20   ar
    33    20    21    1
    34    21    22    1
    35    22    23    1
    36    29    30   ar
    37    30    31   ar
    38    31    36    1
    39    36    37    1
    40    37    38    1
    41    31    32   ar
    42    32    27   ar
    43    12     2   ar
    44    20    15   ar
    45    10     4   ar
    46    23    19    1
    47    25    26    1
@<TRIPOS>MOLECULE
*****
 43 47 0 0 0
SMALL
GASTEIGER

@<TRIPOS>ATOM
      1 C         141.5359  142.3472  162.4457 C.3     1  UNL1        0.0807
      2 C         141.9848  142.2914  163.8760 C.ar    1  UNL1        0.0375
      3 C         141.1366  141.5998  164.9018 C.ar    1  UNL1        0.0023
      4 C         141.5855  141.5440  166.3320 C.ar    1  UNL1        0.0181
      5 C         140.7373  140.8525  167.3578 C.ar    1  UNL1        0.0082
      6 C         141.1862  140.7967  168.7880 C.ar    1  UNL1        0.0347
      7 BR        140.3380  140.1051  169.8139 Br      1  UNL1       -0.0490
      8 C         142.4832  141.4325  169.1923 C.ar    1  UNL1        0.0082
      9 C         143.3314  142.1240  168.1665 C.ar    1  UNL1        0.0197
     10 C         142.8825  142.1798  166.7363 C.ar    1  UNL1        0.0844
     11 N         143.7307  142.8714  165.7104 N.ar    1  UNL1       -0.2119
     12 C         143.2818  142.9271  164.2803 C.ar    1  UNL1        0.2211
     13 O         144.1300  143.6187  163.2544 O.3     1  UNL1       -0.4563
     14 C         143.9732  145.0922  163.0215 C.3     1  UNL1        0.2542
     15 C         142.4458  141.8656  161.3548 C.ar    1  UNL1        0.0215
     16 C         142.8043  142.7784  160.2198 C.ar    1  UNL1       -0.0007
     17 C         143.7143  142.2969  159.1288 C.ar    1  UNL1        0.0030
     18 C         144.2656  140.9026  159.1728 C.ar    1  UNL1        0.0402
     19 C         143.9070  139.9898  160.3079 C.ar    1  UNL1        0.1761
     20 C         142.9971  140.4713  161.3988 C.ar    1  UNL1        0.1728
     21 O         142.8218  139.3533  162.3833 O.3     1  UNL1       -0.4349
     22 C         143.6233  138.1808  161.9008 C.3     1  UNL1        0.4294
     23 O         144.2940  138.5742  160.6181 O.3     1  UNL1       -0.4346
     24 C         140.1771  142.8845  162.1065 C.3     1  UNL1        0.1160
     25 O         140.5798  144.2320  162.6283 O.3     1  UNL1       -0.3820
     26 H         139.8381  144.8500  162.5340 H       1  UNL1        0.2107
     27 C         139.1002  139.0658  162.0185 C.ar    1  UNL1        0.1070
     28 C         139.5028  140.4133  162.5403 C.ar    1  UNL1        0.0235
     29 C         139.7745  141.5371  161.5847 C.ar    1  UNL1        0.0064
     30 C         139.6437  141.3134  160.1073 C.ar    1  UNL1        0.0235
     31 C         139.2410  139.9659  159.5855 C.ar    1  UNL1        0.1070
     32 N         138.9693  138.8422  160.5411 N.ar    1  UNL1       -0.2330
     33 S         138.8284  137.9420  162.9742 S.3     1  UNL1       -0.0950
     34 C         140.7489  137.5676  164.6835 C.3     1  UNL1        0.0130
     35 C         139.3483  138.0104  164.3796 C.3     1  UNL1        0.0637
     36 S         139.1102  139.7423  158.1080 S.3     1  UNL1       -0.0950
     37 C         140.0291  138.7838  157.4103 C.3     1  UNL1        0.0637
     38 C         141.4658  138.6825  157.8292 C.3     1  UNL1        0.0130
     39 C         138.8184  143.4219  161.7673 C.3     1  UNL1        0.0491
     40 C         138.0545  144.2228  162.7797 C.3     1  UNL1        0.0750
     41 N         138.0826  143.8262  164.2260 N.3     1  UNL1       -0.2702
     42 C         138.5875  144.7901  165.2583 C.3     1  UNL1        0.0897
     43 C         137.6059  142.4656  164.6400 C.3     1  UNL1        0.0897
@<TRIPOS>BOND
     1    34    35    1
     2    35    33    1
     3    33    27    1
     4    27    28   ar
     5    28    29   ar
     6    29    24    1
     7    24    25    1
     8    24    39    1
     9    39    40    1
    10    40    41    1
    11    41    42    1
    12    41    43    1
    13    24     1    1
    14     1     2    1
    15     2     3   ar
    16     3     4   ar
    17     4     5   ar
    18     5     6   ar
    19     6     7    1
    20     6     8   ar
    21     8     9   ar
    22     9    10   ar
    23    10    11   ar
    24    11    12   ar
    25    12    13    1
    26    13    14    1
    27     1    15    1
    28    15    16   ar
    29    16    17   ar
    30    17    18   ar
    31    18    19   ar
    32    19    20   ar
    33    20    21    1
    34    21    22    1
    35    22    23    1
    36    29    30   ar
    37    30    31   ar
    38    31    36    1
    39    36    37    1
    40    37    38    1
    41    31    32   ar
    42    32    27   ar
    43    12     2   ar
    44    20    15   ar
    45    10     4   ar
    46    23    19    1
    47    25    26    1
