@<TRIPOS>MOLECULE
*****
 21 24 0 0 0
SMALL
GASTEIGER

@<TRIPOS>ATOM
      1 N         141.8889  139.0065  165.3233 N.ar    1  UNL1       -0.3247
      2 C         141.4000  139.5862  166.6175 C.ar    1  UNL1        0.0759
      3 C         142.1098  140.8889  166.8393 C.ar    1  UNL1        0.0188
      4 C         143.0374  141.1143  165.6823 C.ar    1  UNL1        0.0203
      5 C         143.9887  142.2286  165.3608 C.ar    1  UNL1        0.0222
      6 C         144.8034  142.1795  164.1024 C.ar    1  UNL1        0.0990
      7 N         144.6669  141.0161  163.1654 N.ar    1  UNL1       -0.2408
      8 C         143.7156  139.9018  163.4869 C.ar    1  UNL1        0.1160
      9 C         142.9008  139.9509  164.7453 C.ar    1  UNL1        0.0794
     10 C         141.9245  141.8053  168.0123 C.ar    1  UNL1        0.0046
     11 C         140.6306  142.5430  168.1907 C.ar    1  UNL1        0.0207
     12 C         140.4454  143.4595  169.3637 C.ar    1  UNL1        0.0989
     13 N         141.5540  143.6382  170.3582 N.ar    1  UNL1       -0.2423
     14 C         142.8478  142.9006  170.1798 C.ar    1  UNL1        0.0989
     15 C         143.0330  141.9842  169.0068 C.ar    1  UNL1        0.0207
     16 C         141.4440  137.7101  164.7141 C.3     1  UNL1        0.1109
     17 C         139.3475  137.6968  165.0377 C.3     1  UNL1        0.0070
     18 C         140.2341  137.6739  163.8280 C.3     1  UNL1        0.0755
     19 C         141.1208  137.6509  162.6183 C.3     1  UNL1        0.1463
     20 O         139.9110  137.6148  161.7323 O.3     1  UNL1       -0.3535
     21 C         139.0243  137.6377  162.9420 C.3     1  UNL1        0.1463
@<TRIPOS>BOND
     1    17    18    1
     2    18    16    1
     3    16     1    1
     4     1     2   ar
     5     2     3   ar
     6     3    10    1
     7    10    11   ar
     8    11    12   ar
     9    12    13   ar
    10    13    14   ar
    11    14    15   ar
    12     3     4   ar
    13     4     5   ar
    14     5     6   ar
    15     6     7   ar
    16     7     8   ar
    17     8     9   ar
    18    18    19    1
    19    19    20    1
    20    20    21    1
    21    21    18    1
    22     9     1   ar
    23    15    10   ar
    24     9     4   ar
@<TRIPOS>MOLECULE
*****
 21 24 0 0 0
SMALL
GASTEIGER

@<TRIPOS>ATOM
      1 N         140.6049  142.4569  164.0559 N.ar    1  UNL1       -0.3247
      2 C         141.2449  143.1028  165.2489 C.ar    1  UNL1        0.0759
      3 C         140.9017  142.2850  166.4585 C.ar    1  UNL1        0.0188
      4 C         140.0496  141.1336  166.0131 C.ar    1  UNL1        0.0203
      5 C         139.4171  140.0021  166.7679 C.ar    1  UNL1        0.0222
      6 C         138.6012  138.9769  166.0377 C.ar    1  UNL1        0.0990
      7 N         138.4178  139.0832  164.5527 N.ar    1  UNL1       -0.2408
      8 C         139.0503  140.2147  163.7980 C.ar    1  UNL1        0.1160
      9 C         139.8663  141.2398  164.5282 C.ar    1  UNL1        0.0794
     10 C         141.3345  142.5686  167.8664 C.ar    1  UNL1        0.0046
     11 C         140.3902  143.2374  168.8211 C.ar    1  UNL1        0.0207
     12 C         140.8230  143.5210  170.2290 C.ar    1  UNL1        0.0989
     13 N         142.2000  143.1361  170.6823 N.ar    1  UNL1       -0.2423
     14 C         143.1443  142.4674  169.7277 C.ar    1  UNL1        0.0989
     15 C         142.7115  142.1837  168.3198 C.ar    1  UNL1        0.0207
     16 C         140.6890  142.9427  162.6392 C.3     1  UNL1        0.1109
     17 C         141.7995  144.6866  162.1645 C.3     1  UNL1        0.0070
     18 C         140.3419  144.3650  162.3122 C.3     1  UNL1        0.0755
     19 C         138.8843  144.0433  162.4599 C.3     1  UNL1        0.1463
     20 O         138.5373  145.4655  162.1329 O.3     1  UNL1       -0.3535
     21 C         139.9950  145.7872  161.9853 C.3     1  UNL1        0.1463
@<TRIPOS>BOND
     1    17    18    1
     2    18    16    1
     3    16     1    1
     4     1     2   ar
     5     2     3   ar
     6     3    10    1
     7    10    11   ar
     8    11    12   ar
     9    12    13   ar
    10    13    14   ar
    11    14    15   ar
    12     3     4   ar
    13     4     5   ar
    14     5     6   ar
    15     6     7   ar
    16     7     8   ar
    17     8     9   ar
    18    18    19    1
    19    19    20    1
    20    20    21    1
    21    21    18    1
    22     9     1   ar
    23    15    10   ar
    24     9     4   ar
@<TRIPOS>MOLECULE
*****
 21 24 0 0 0
SMALL
GASTEIGER

@<TRIPOS>ATOM
      1 N         141.4973  143.7904  164.2471 N.ar    1  UNL1       -0.3247
      2 C         141.2888  143.2067  165.6131 C.ar    1  UNL1        0.0759
      3 C         142.4599  142.3220  165.9227 C.ar    1  UNL1        0.0188
      4 C         143.3921  142.3589  164.7481 C.ar    1  UNL1        0.0203
      5 C         144.7057  141.6833  164.4878 C.ar    1  UNL1        0.0222
      6 C         145.4245  141.9153  163.1918 C.ar    1  UNL1        0.0990
      7 N         144.8296  142.8229  162.1562 N.ar    1  UNL1       -0.2408
      8 C         143.5159  143.4984  162.4166 C.ar    1  UNL1        0.1160
      9 C         142.7971  143.2664  163.7125 C.ar    1  UNL1        0.0794
     10 C         142.6631  141.5380  167.1853 C.ar    1  UNL1        0.0046
     11 C         143.0709  142.2401  168.4467 C.ar    1  UNL1        0.0207
     12 C         143.2741  141.4561  169.7092 C.ar    1  UNL1        0.0989
     13 N         143.0696  139.9701  169.7105 N.ar    1  UNL1       -0.2423
     14 C         142.6618  139.2681  168.4492 C.ar    1  UNL1        0.0989
     15 C         142.4586  140.0521  167.1866 C.ar    1  UNL1        0.0207
     16 C         140.5689  144.7327  163.5399 C.3     1  UNL1        0.1109
     17 C         138.7664  144.8540  164.6518 C.3     1  UNL1        0.0070
     18 C         139.1427  144.3375  163.2948 C.3     1  UNL1        0.0755
     19 C         139.5191  143.8210  161.9377 C.3     1  UNL1        0.1463
     20 O         138.0930  143.4258  161.6926 O.3     1  UNL1       -0.3535
     21 C         137.7166  143.9423  163.0498 C.3     1  UNL1        0.1463
@<TRIPOS>BOND
     1    17    18    1
     2    18    16    1
     3    16     1    1
     4     1     2   ar
     5     2     3   ar
     6     3    10    1
     7    10    11   ar
     8    11    12   ar
     9    12    13   ar
    10    13    14   ar
    11    14    15   ar
    12     3     4   ar
    13     4     5   ar
    14     5     6   ar
    15     6     7   ar
    16     7     8   ar
    17     8     9   ar
    18    18    19    1
    19    19    20    1
    20    20    21    1
    21    21    18    1
    22     9     1   ar
    23    15    10   ar
    24     9     4   ar
@<TRIPOS>MOLECULE
*****
 21 24 0 0 0
SMALL
GASTEIGER

@<TRIPOS>ATOM
      1 N         139.0246  140.2934  165.2687 N.ar    1  UNL1       -0.3247
      2 C         139.8365  140.3665  166.5278 C.ar    1  UNL1        0.0759
      3 C         140.1532  141.8088  166.7919 C.ar    1  UNL1        0.0188
      4 C         139.5369  142.6269  165.6961 C.ar    1  UNL1        0.0203
      5 C         139.5208  144.1037  165.4339 C.ar    1  UNL1        0.0222
      6 C         138.8071  144.6439  164.2303 C.ar    1  UNL1        0.0990
      7 N         138.1096  143.7074  163.2888 N.ar    1  UNL1       -0.2408
      8 C         138.1257  142.2306  163.5510 C.ar    1  UNL1        0.1160
      9 C         138.8394  141.6904  164.7547 C.ar    1  UNL1        0.0794
     10 C         140.9468  142.3396  167.9488 C.ar    1  UNL1        0.0046
     11 C         142.3940  141.9736  168.0965 C.ar    1  UNL1        0.0207
     12 C         143.1876  142.5045  169.2534 C.ar    1  UNL1        0.0989
     13 N         142.5340  143.4014  170.2626 N.ar    1  UNL1       -0.2423
     14 C         141.0869  143.7673  170.1149 C.ar    1  UNL1        0.0989
     15 C         140.2933  143.2364  168.9580 C.ar    1  UNL1        0.0207
     16 C         138.4914  139.0428  164.6348 C.3     1  UNL1        0.1109
     17 C         140.2673  137.8826  164.6357 C.3     1  UNL1        0.0070
     18 C         139.2947  138.3323  163.5860 C.3     1  UNL1        0.0755
     19 C         138.3221  138.7820  162.5364 C.3     1  UNL1        0.1463
     20 O         139.1253  138.0715  161.4876 O.3     1  UNL1       -0.3535
     21 C         140.0980  137.6218  162.5373 C.3     1  UNL1        0.1463
@<TRIPOS>BOND
     1    17    18    1
     2    18    16    1
     3    16     1    1
     4     1     2   ar
     5     2     3   ar
     6     3    10    1
     7    10    11   ar
     8    11    12   ar
     9    12    13   ar
    10    13    14   ar
    11    14    15   ar
    12     3     4   ar
    13     4     5   ar
    14     5     6   ar
    15     6     7   ar
    16     7     8   ar
    17     8     9   ar
    18    18    19    1
    19    19    20    1
    20    20    21    1
    21    21    18    1
    22     9     1   ar
    23    15    10   ar
    24     9     4   ar
@<TRIPOS>MOLECULE
*****
 21 24 0 0 0
SMALL
GASTEIGER

@<TRIPOS>ATOM
      1 N         139.9714  140.9943  167.6793 N.ar    1  UNL1       -0.3247
      2 C         140.8299  142.1684  167.3129 C.ar    1  UNL1        0.0759
      3 C         140.9867  142.1803  165.8211 C.ar    1  UNL1        0.0188
      4 C         140.2251  141.0135  165.2657 C.ar    1  UNL1        0.0203
      5 C         140.0219  140.5238  163.8625 C.ar    1  UNL1        0.0222
      6 C         139.1912  139.3011  163.6079 C.ar    1  UNL1        0.0990
      7 N         138.5637  138.5681  164.7563 N.ar    1  UNL1       -0.2408
      8 C         138.7669  139.0578  166.1595 C.ar    1  UNL1        0.1160
      9 C         139.5976  140.2805  166.4141 C.ar    1  UNL1        0.0794
     10 C         141.7679  143.1829  165.0246 C.ar    1  UNL1        0.0046
     11 C         143.2619  143.0758  164.9425 C.ar    1  UNL1        0.0207
     12 C         144.0431  144.0784  164.1460 C.ar    1  UNL1        0.0989
     13 N         143.3304  145.1882  163.4316 N.ar    1  UNL1       -0.2423
     14 C         141.8365  145.2954  163.5137 C.ar    1  UNL1        0.0989
     15 C         141.0553  144.2927  164.3102 C.ar    1  UNL1        0.0207
     16 C         139.5591  140.6027  169.0674 C.3     1  UNL1        0.1109
     17 C         141.3040  139.6453  169.8015 C.3     1  UNL1        0.0070
     18 C         140.4908  140.8342  170.2200 C.3     1  UNL1        0.0755
     19 C         139.6776  142.0231  170.6385 C.3     1  UNL1        0.1463
     20 O         140.6092  142.2547  171.7910 O.3     1  UNL1       -0.3535
     21 C         141.4225  141.0657  171.3725 C.3     1  UNL1        0.1463
@<TRIPOS>BOND
     1    17    18    1
     2    18    16    1
     3    16     1    1
     4     1     2   ar
     5     2     3   ar
     6     3    10    1
     7    10    11   ar
     8    11    12   ar
     9    12    13   ar
    10    13    14   ar
    11    14    15   ar
    12     3     4   ar
    13     4     5   ar
    14     5     6   ar
    15     6     7   ar
    16     7     8   ar
    17     8     9   ar
    18    18    19    1
    19    19    20    1
    20    20    21    1
    21    21    18    1
    22     9     1   ar
    23    15    10   ar
    24     9     4   ar
@<TRIPOS>MOLECULE
*****
 21 24 0 0 0
SMALL
GASTEIGER

@<TRIPOS>ATOM
      1 N         141.7321  141.5459  165.0030 N.ar    1  UNL1       -0.3247
      2 C         141.9137  142.0954  166.3869 C.ar    1  UNL1        0.0759
      3 C         140.9121  141.4312  167.2844 C.ar    1  UNL1        0.0188
      4 C         140.1115  140.4712  166.4553 C.ar    1  UNL1        0.0203
      5 C         138.9865  139.5416  166.8021 C.ar    1  UNL1        0.0222
      6 C         138.3684  138.6829  165.7388 C.ar    1  UNL1        0.0990
      7 N         138.8752  138.7538  164.3288 N.ar    1  UNL1       -0.2408
      8 C         140.0002  139.6833  163.9821 C.ar    1  UNL1        0.1160
      9 C         140.6183  140.5420  165.0453 C.ar    1  UNL1        0.0794
     10 C         140.7410  141.6829  168.7532 C.ar    1  UNL1        0.0046
     11 C         140.2088  143.0014  169.2313 C.ar    1  UNL1        0.0207
     12 C         140.0378  143.2530  170.7001 C.ar    1  UNL1        0.0989
     13 N         140.3988  142.1863  171.6909 N.ar    1  UNL1       -0.2423
     14 C         140.9310  140.8678  171.2128 C.ar    1  UNL1        0.0989
     15 C         141.1020  140.6162  169.7440 C.ar    1  UNL1        0.0207
     16 C         142.5251  141.9323  163.7898 C.3     1  UNL1        0.1109
     17 C         144.0802  143.3751  163.7738 C.3     1  UNL1        0.0070
     18 C         144.0238  141.8770  163.8245 C.3     1  UNL1        0.0755
     19 C         143.9673  140.3790  163.8752 C.3     1  UNL1        0.1463
     20 O         145.4659  140.3236  163.9098 O.3     1  UNL1       -0.3535
     21 C         145.5224  141.8218  163.8592 C.3     1  UNL1        0.1463
@<TRIPOS>BOND
     1    17    18    1
     2    18    16    1
     3    16     1    1
     4     1     2   ar
     5     2     3   ar
     6     3    10    1
     7    10    11   ar
     8    11    12   ar
     9    12    13   ar
    10    13    14   ar
    11    14    15   ar
    12     3     4   ar
    13     4     5   ar
    14     5     6   ar
    15     6     7   ar
    16     7     8   ar
    17     8     9   ar
    18    18    19    1
    19    19    20    1
    20    20    21    1
    21    21    18    1
    22     9     1   ar
    23    15    10   ar
    24     9     4   ar
@<TRIPOS>MOLECULE
*****
 21 24 0 0 0
SMALL
GASTEIGER

@<TRIPOS>ATOM
      1 N         141.5309  142.4442  164.2933 N.ar    1  UNL1       -0.3247
      2 C         140.7429  142.8113  165.5157 C.ar    1  UNL1        0.0759
      3 C         141.0318  141.7913  166.5769 C.ar    1  UNL1        0.0188
      4 C         141.9983  140.7938  166.0103 C.ar    1  UNL1        0.0203
      5 C         142.6373  139.5703  166.5972 C.ar    1  UNL1        0.0222
      6 C         143.5848  138.7503  165.7728 C.ar    1  UNL1        0.0990
      7 N         143.8933  139.1538  164.3614 N.ar    1  UNL1       -0.2408
      8 C         143.2542  140.3774  163.7745 C.ar    1  UNL1        0.1160
      9 C         142.3067  141.1974  164.5989 C.ar    1  UNL1        0.0794
     10 C         140.4554  141.7721  167.9616 C.ar    1  UNL1        0.0046
     11 C         140.6049  142.9693  168.8529 C.ar    1  UNL1        0.0207
     12 C         140.0285  142.9501  170.2376 C.ar    1  UNL1        0.0989
     13 N         139.3026  141.7337  170.7310 N.ar    1  UNL1       -0.2423
     14 C         139.1531  140.5366  169.8398 C.ar    1  UNL1        0.0989
     15 C         139.7295  140.5558  168.4551 C.ar    1  UNL1        0.0207
     16 C         141.5412  143.1926  162.9933 C.3     1  UNL1        0.1109
     17 C         141.5714  145.2908  163.3043 C.3     1  UNL1        0.0070
     18 C         140.5700  144.3129  162.7651 C.3     1  UNL1        0.0755
     19 C         139.5687  143.3349  162.2259 C.3     1  UNL1        0.1463
     20 O         138.5975  144.4550  161.9976 O.3     1  UNL1       -0.3535
     21 C         139.5990  145.4331  162.5369 C.3     1  UNL1        0.1463
@<TRIPOS>BOND
     1    17    18    1
     2    18    16    1
     3    16     1    1
     4     1     2   ar
     5     2     3   ar
     6     3    10    1
     7    10    11   ar
     8    11    12   ar
     9    12    13   ar
    10    13    14   ar
    11    14    15   ar
    12     3     4   ar
    13     4     5   ar
    14     5     6   ar
    15     6     7   ar
    16     7     8   ar
    17     8     9   ar
    18    18    19    1
    19    19    20    1
    20    20    21    1
    21    21    18    1
    22     9     1   ar
    23    15    10   ar
    24     9     4   ar
@<TRIPOS>MOLECULE
*****
 21 24 0 0 0
SMALL
GASTEIGER

@<TRIPOS>ATOM
      1 N         141.2824  140.2657  167.7189 N.ar    1  UNL1       -0.3247
      2 C         140.2231  141.2466  167.3117 C.ar    1  UNL1        0.0759
      3 C         140.3085  141.4305  165.8254 C.ar    1  UNL1        0.0188
      4 C         141.4204  140.5632  165.3141 C.ar    1  UNL1        0.0203
      5 C         141.9626  140.3361  163.9341 C.ar    1  UNL1        0.0222
      6 C         143.1067  139.3890  163.7244 C.ar    1  UNL1        0.0990
      7 N         143.7086  138.6691  164.8946 N.ar    1  UNL1       -0.2408
      8 C         143.1664  138.8962  166.2746 C.ar    1  UNL1        0.1160
      9 C         142.0223  139.8433  166.4843 C.ar    1  UNL1        0.0794
     10 C         139.4352  142.3247  164.9961 C.ar    1  UNL1        0.0046
     11 C         139.6011  143.8137  165.0703 C.ar    1  UNL1        0.0207
     12 C         138.7278  144.7079  164.2409 C.ar    1  UNL1        0.0989
     13 N         137.6886  144.1131  163.3374 N.ar    1  UNL1       -0.2423
     14 C         137.5227  142.6242  163.2632 C.ar    1  UNL1        0.0989
     15 C         138.3960  141.7300  164.0926 C.ar    1  UNL1        0.0207
     16 C         141.5540  139.7905  169.1154 C.3     1  UNL1        0.1109
     17 C         143.0445  141.1996  169.6562 C.3     1  UNL1        0.0070
     18 C         141.7209  140.7842  170.2267 C.3     1  UNL1        0.0755
     19 C         140.3973  140.3688  170.7971 C.3     1  UNL1        0.1463
     20 O         140.5642  141.3624  171.9082 O.3     1  UNL1       -0.3535
     21 C         141.8880  141.7779  171.3378 C.3     1  UNL1        0.1463
@<TRIPOS>BOND
     1    17    18    1
     2    18    16    1
     3    16     1    1
     4     1     2   ar
     5     2     3   ar
     6     3    10    1
     7    10    11   ar
     8    11    12   ar
     9    12    13   ar
    10    13    14   ar
    11    14    15   ar
    12     3     4   ar
    13     4     5   ar
    14     5     6   ar
    15     6     7   ar
    16     7     8   ar
    17     8     9   ar
    18    18    19    1
    19    19    20    1
    20    20    21    1
    21    21    18    1
    22     9     1   ar
    23    15    10   ar
    24     9     4   ar
@<TRIPOS>MOLECULE
*****
 21 24 0 0 0
SMALL
GASTEIGER

@<TRIPOS>ATOM
      1 N         144.0559  142.2218  164.4861 N.ar    1  UNL1       -0.3247
      2 C         143.7274  142.9571  165.7515 C.ar    1  UNL1        0.0759
      3 C         142.9618  142.0254  166.6435 C.ar    1  UNL1        0.0188
      4 C         142.8171  140.7142  165.9294 C.ar    1  UNL1        0.0203
      5 C         142.1569  139.4255  166.3210 C.ar    1  UNL1        0.0222
      6 C         142.1730  138.2582  165.3792 C.ar    1  UNL1        0.0990
      7 N         142.8493  138.3796  164.0458 N.ar    1  UNL1       -0.2408
      8 C         143.5094  139.6683  163.6542 C.ar    1  UNL1        0.1160
      9 C         143.4933  140.8356  164.5960 C.ar    1  UNL1        0.0794
     10 C         142.4335  142.3481  168.0098 C.ar    1  UNL1        0.0046
     11 C         143.3701  142.4148  169.1796 C.ar    1  UNL1        0.0207
     12 C         142.8419  142.7375  170.5459 C.ar    1  UNL1        0.0989
     13 N         141.3770  142.9936  170.7425 N.ar    1  UNL1       -0.2423
     14 C         140.4405  142.9270  169.5727 C.ar    1  UNL1        0.0989
     15 C         140.9687  142.6042  168.2064 C.ar    1  UNL1        0.0207
     16 C         144.8140  142.7754  163.3161 C.3     1  UNL1        0.1109
     17 C         144.8458  141.8978  161.3851 C.3     1  UNL1        0.0070
     18 C         144.1060  143.0378  162.0199 C.3     1  UNL1        0.0755
     19 C         143.3662  144.1777  162.6549 C.3     1  UNL1        0.1463
     20 O         142.6582  144.4402  161.3588 O.3     1  UNL1       -0.3535
     21 C         143.3981  143.3002  160.7238 C.3     1  UNL1        0.1463
@<TRIPOS>BOND
     1    17    18    1
     2    18    16    1
     3    16     1    1
     4     1     2   ar
     5     2     3   ar
     6     3    10    1
     7    10    11   ar
     8    11    12   ar
     9    12    13   ar
    10    13    14   ar
    11    14    15   ar
    12     3     4   ar
    13     4     5   ar
    14     5     6   ar
    15     6     7   ar
    16     7     8   ar
    17     8     9   ar
    18    18    19    1
    19    19    20    1
    20    20    21    1
    21    21    18    1
    22     9     1   ar
    23    15    10   ar
    24     9     4   ar
