@<TRIPOS>MOLECULE
*****
 30 33 0 0 0
SMALL
GASTEIGER

@<TRIPOS>ATOM
      1 C         142.1629  137.7195  157.9048 C.2     1  UNL1        0.1571
      2 N         140.9487  138.4599  157.4281 N.2     1  UNL1       -0.1436
      3 N         140.3991  139.2420  158.5841 N.2     1  UNL1       -0.1519
      4 C         141.2738  138.9848  159.7753 C.2     1  UNL1        0.0865
      5 C         141.2184  139.4860  161.1880 C.3     1  UNL1        0.0740
      6 C         142.2531  139.0461  162.1809 C.2     1  UNL1       -0.0153
      7 C         143.3432  138.1052  161.7611 C.2     1  UNL1       -0.0038
      8 C         143.3986  137.6041  160.3484 C.2     1  UNL1        0.0026
      9 C         142.3639  138.0439  159.3555 C.2     1  UNL1        0.0395
     10 C         142.1978  139.5472  163.5937 C.ar    1  UNL1        0.0071
     11 C         142.9206  140.8060  163.9718 C.ar    1  UNL1        0.0020
     12 C         142.8653  141.3071  165.3845 C.ar    1  UNL1        0.0177
     13 C         142.0871  140.5495  166.4192 C.ar    1  UNL1        0.0677
     14 C         141.3642  139.2907  166.0411 C.ar    1  UNL1        0.0290
     15 C         141.4196  138.7896  164.6283 C.ar    1  UNL1        0.0588
     16 CL        140.6967  137.5308  164.2501 Cl      1  UNL1       -0.0822
     17 N         142.0318  141.0506  167.8319 N.ar    1  UNL1       -0.2734
     18 C         142.7828  140.3312  168.9128 C.ar    1  UNL1        0.0829
     19 C         142.7275  140.8323  170.3255 C.ar    1  UNL1        0.0189
     20 C         141.9211  142.0529  170.6573 C.ar    1  UNL1        0.0020
     21 C         141.1701  142.7723  169.5764 C.ar    1  UNL1        0.0347
     22 C         140.3637  143.9928  169.9082 C.3     1  UNL1        0.0360
     23 C         141.2254  142.2711  168.1636 C.ar    1  UNL1        0.2607
     24 O         140.4744  142.9905  167.0827 O.2     1  UNL1       -0.2670
     25 N         142.8708  135.3255  157.1851 N.am    1  UNL1       -0.2996
     26 C         143.0250  136.8137  157.0764 C.2     1  UNL1        0.2654
     27 O         144.0412  137.3958  156.1392 O.2     1  UNL1       -0.2684
     28 H         142.2038  134.9433  157.8002 H       1  UNL1        0.1498
     29 C         143.1173  133.5786  155.2779 C.3     1  UNL1        0.0230
     30 C         143.7328  134.4197  156.3566 C.3     1  UNL1        0.0898
@<TRIPOS>BOND
     1    29    30    1
     2    30    25    1
     3    25    26   am
     4    26    27    2
     5    26     1    1
     6     1     2    2
     7     2     3    1
     8     3     4    2
     9     4     5    1
    10     5     6    1
    11     6    10    1
    12    10    11   ar
    13    11    12   ar
    14    12    13   ar
    15    13    17    1
    16    17    18   ar
    17    18    19   ar
    18    19    20   ar
    19    20    21   ar
    20    21    22    1
    21    21    23   ar
    22    23    24    2
    23    13    14   ar
    24    14    15   ar
    25    15    16    1
    26     6     7    2
    27     7     8    1
    28     8     9    2
    29     9     1    1
    30     9     4    1
    31    15    10   ar
    32    23    17   ar
    33    25    28    1
@<TRIPOS>MOLECULE
*****
 30 33 0 0 0
SMALL
GASTEIGER

@<TRIPOS>ATOM
      1 C         138.9307  139.6552  168.0192 C.2     1  UNL1        0.1571
      2 N         137.7596  138.7181  167.9999 N.2     1  UNL1       -0.1436
      3 N         137.6508  138.1407  166.6198 N.2     1  UNL1       -0.1519
      4 C         138.7546  138.7208  165.7862 C.2     1  UNL1        0.0865
      5 C         139.1416  138.5176  164.3513 C.3     1  UNL1        0.0740
      6 C         140.3197  139.2505  163.7813 C.2     1  UNL1       -0.0153
      7 C         141.1108  140.1866  164.6462 C.2     1  UNL1       -0.0038
      8 C         140.7238  140.3897  166.0811 C.2     1  UNL1        0.0026
      9 C         139.5457  139.6568  166.6510 C.2     1  UNL1        0.0395
     10 C         140.7068  139.0474  162.3464 C.ar    1  UNL1        0.0071
     11 C         141.7101  137.9934  161.9822 C.ar    1  UNL1        0.0020
     12 C         142.0971  137.7903  160.5473 C.ar    1  UNL1        0.0177
     13 C         141.4809  138.6411  159.4766 C.ar    1  UNL1        0.0677
     14 C         140.4777  139.6950  159.8407 C.ar    1  UNL1        0.0290
     15 C         140.0906  139.8982  161.2757 C.ar    1  UNL1        0.0588
     16 CL        139.0873  140.9521  161.6398 Cl      1  UNL1       -0.0822
     17 N         141.8680  138.4379  158.0417 N.ar    1  UNL1       -0.2734
     18 C         140.9816  137.6406  157.1314 C.ar    1  UNL1        0.0829
     19 C         141.3687  137.4375  155.6966 C.ar    1  UNL1        0.0189
     20 C         142.6422  138.0316  155.1719 C.ar    1  UNL1        0.0020
     21 C         143.5286  138.8289  156.0822 C.ar    1  UNL1        0.0347
     22 C         144.8021  139.4230  155.5576 C.3     1  UNL1        0.0360
     23 C         143.1415  139.0321  157.5171 C.ar    1  UNL1        0.2607
     24 O         144.0279  139.8294  158.4274 O.2     1  UNL1       -0.2670
     25 N         140.0005  141.8121  168.9958 N.am    1  UNL1       -0.2996
     26 C         139.4039  140.4509  169.1994 C.2     1  UNL1        0.2654
     27 O         139.2804  139.8857  170.5833 O.2     1  UNL1       -0.2684
     28 H         140.0816  142.1831  168.0875 H       1  UNL1        0.1498
     29 C         140.5462  144.1036  170.0915 C.3     1  UNL1        0.0230
     30 C         140.4737  142.6078  170.1760 C.3     1  UNL1        0.0898
@<TRIPOS>BOND
     1    29    30    1
     2    30    25    1
     3    25    26   am
     4    26    27    2
     5    26     1    1
     6     1     2    2
     7     2     3    1
     8     3     4    2
     9     4     5    1
    10     5     6    1
    11     6    10    1
    12    10    11   ar
    13    11    12   ar
    14    12    13   ar
    15    13    17    1
    16    17    18   ar
    17    18    19   ar
    18    19    20   ar
    19    20    21   ar
    20    21    22    1
    21    21    23   ar
    22    23    24    2
    23    13    14   ar
    24    14    15   ar
    25    15    16    1
    26     6     7    2
    27     7     8    1
    28     8     9    2
    29     9     1    1
    30     9     4    1
    31    15    10   ar
    32    23    17   ar
    33    25    28    1
@<TRIPOS>MOLECULE
*****
 30 33 0 0 0
SMALL
GASTEIGER

@<TRIPOS>ATOM
      1 C         144.2653  140.5033  157.7431 C.2     1  UNL1        0.1571
      2 N         143.7789  139.0967  157.5561 N.2     1  UNL1       -0.1436
      3 N         143.1429  138.6518  158.8396 N.2     1  UNL1       -0.1519
      4 C         143.2362  139.7833  159.8199 C.2     1  UNL1        0.0865
      5 C         142.7790  139.9195  161.2420 C.3     1  UNL1        0.0740
      6 C         143.0157  141.2001  161.9864 C.2     1  UNL1       -0.0153
      7 C         143.7094  142.3444  161.3087 C.2     1  UNL1       -0.0038
      8 C         144.1665  142.2082  159.8866 C.2     1  UNL1        0.0026
      9 C         143.9299  140.9276  159.1422 C.2     1  UNL1        0.0395
     10 C         142.5585  141.3363  163.4086 C.ar    1  UNL1        0.0071
     11 C         141.2465  141.9957  163.7147 C.ar    1  UNL1        0.0020
     12 C         140.7894  142.1320  165.1368 C.ar    1  UNL1        0.0177
     13 C         141.6443  141.6089  166.2529 C.ar    1  UNL1        0.0677
     14 C         142.9563  140.9495  165.9468 C.ar    1  UNL1        0.0290
     15 C         143.4135  140.8132  164.5246 C.ar    1  UNL1        0.0588
     16 CL        144.7255  140.1538  164.2184 Cl      1  UNL1       -0.0822
     17 N         141.1872  141.7452  167.6750 N.ar    1  UNL1       -0.2734
     18 C         141.8554  142.7316  168.5863 C.ar    1  UNL1        0.0829
     19 C         141.3982  142.8678  170.0084 C.ar    1  UNL1        0.0189
     20 C         140.2728  142.0177  170.5193 C.ar    1  UNL1        0.0020
     21 C         139.6046  141.0313  169.6079 C.ar    1  UNL1        0.0347
     22 C         138.4793  140.1812  170.1187 C.3     1  UNL1        0.0360
     23 C         140.0618  140.8951  168.1857 C.ar    1  UNL1        0.2607
     24 O         139.3936  139.9087  167.2744 O.2     1  UNL1       -0.2670
     25 N         146.3556  140.9844  156.2770 N.am    1  UNL1       -0.2996
     26 C         144.9644  141.3388  156.7121 C.2     1  UNL1        0.2654
     27 O         144.2726  142.5287  156.1160 O.2     1  UNL1       -0.2684
     28 H         146.8098  140.2034  156.6681 H       1  UNL1        0.1498
     29 C         148.5469  141.9673  155.2861 C.3     1  UNL1        0.0230
     30 C         147.0547  141.8200  155.2459 C.3     1  UNL1        0.0898
@<TRIPOS>BOND
     1    29    30    1
     2    30    25    1
     3    25    26   am
     4    26    27    2
     5    26     1    1
     6     1     2    2
     7     2     3    1
     8     3     4    2
     9     4     5    1
    10     5     6    1
    11     6    10    1
    12    10    11   ar
    13    11    12   ar
    14    12    13   ar
    15    13    17    1
    16    17    18   ar
    17    18    19   ar
    18    19    20   ar
    19    20    21   ar
    20    21    22    1
    21    21    23   ar
    22    23    24    2
    23    13    14   ar
    24    14    15   ar
    25    15    16    1
    26     6     7    2
    27     7     8    1
    28     8     9    2
    29     9     1    1
    30     9     4    1
    31    15    10   ar
    32    23    17   ar
    33    25    28    1
@<TRIPOS>MOLECULE
*****
 30 33 0 0 0
SMALL
GASTEIGER

@<TRIPOS>ATOM
      1 C         138.9963  139.8249  168.0440 C.2     1  UNL1        0.1571
      2 N         137.9387  138.7619  168.0068 N.2     1  UNL1       -0.1436
      3 N         137.5181  138.5764  166.5790 N.2     1  UNL1       -0.1519
      4 C         138.3158  139.5246  165.7338 C.2     1  UNL1        0.0865
      5 C         138.3282  139.7852  164.2567 C.3     1  UNL1        0.0740
      6 C         139.2543  140.8173  163.6850 C.2     1  UNL1       -0.0153
      7 C         140.1680  141.5890  164.5904 C.2     1  UNL1       -0.0038
      8 C         140.1555  141.3285  166.0675 C.2     1  UNL1        0.0026
      9 C         139.2294  140.2963  166.6392 C.2     1  UNL1        0.0395
     10 C         139.2668  141.0779  162.2078 C.ar    1  UNL1        0.0071
     11 C         140.0320  140.1688  161.2923 C.ar    1  UNL1        0.0020
     12 C         140.0445  140.4294  159.8152 C.ar    1  UNL1        0.0177
     13 C         139.2918  141.5990  159.2535 C.ar    1  UNL1        0.0677
     14 C         138.5267  142.5081  160.1689 C.ar    1  UNL1        0.0290
     15 C         138.5142  142.2475  161.6461 C.ar    1  UNL1        0.0588
     16 CL        137.7490  143.1566  162.5616 Cl      1  UNL1       -0.0822
     17 N         139.3044  141.8596  157.7764 N.ar    1  UNL1       -0.2734
     18 C         140.3485  142.7576  157.1820 C.ar    1  UNL1        0.0829
     19 C         140.3610  143.0181  155.7049 C.ar    1  UNL1        0.0189
     20 C         139.3294  142.3806  154.8220 C.ar    1  UNL1        0.0020
     21 C         138.2852  141.4826  155.4164 C.ar    1  UNL1        0.0347
     22 C         137.2536  140.8451  154.5337 C.3     1  UNL1        0.0360
     23 C         138.2727  141.2221  156.8936 C.ar    1  UNL1        0.2607
     24 O         137.2286  140.3240  157.4880 O.2     1  UNL1       -0.2670
     25 N         141.1793  140.1433  169.4165 N.am    1  UNL1       -0.2996
     26 C         139.6978  140.3282  169.2707 C.2     1  UNL1        0.2654
     27 O         138.9180  141.0163  170.3515 O.2     1  UNL1       -0.2684
     28 H         141.6912  139.6916  168.7071 H       1  UNL1        0.1498
     29 C         142.2024  142.1054  170.7777 C.3     1  UNL1        0.0230
     30 C         141.8808  140.6465  170.6431 C.3     1  UNL1        0.0898
@<TRIPOS>BOND
     1    29    30    1
     2    30    25    1
     3    25    26   am
     4    26    27    2
     5    26     1    1
     6     1     2    2
     7     2     3    1
     8     3     4    2
     9     4     5    1
    10     5     6    1
    11     6    10    1
    12    10    11   ar
    13    11    12   ar
    14    12    13   ar
    15    13    17    1
    16    17    18   ar
    17    18    19   ar
    18    19    20   ar
    19    20    21   ar
    20    21    22    1
    21    21    23   ar
    22    23    24    2
    23    13    14   ar
    24    14    15   ar
    25    15    16    1
    26     6     7    2
    27     7     8    1
    28     8     9    2
    29     9     1    1
    30     9     4    1
    31    15    10   ar
    32    23    17   ar
    33    25    28    1
@<TRIPOS>MOLECULE
*****
 30 33 0 0 0
SMALL
GASTEIGER

@<TRIPOS>ATOM
      1 C         137.8966  141.8348  157.7025 C.2     1  UNL1        0.1571
      2 N         138.5077  143.1737  157.4129 N.2     1  UNL1       -0.1436
      3 N         139.2423  143.6233  158.6410 N.2     1  UNL1       -0.1519
      4 C         139.0853  142.5622  159.6896 C.2     1  UNL1        0.0865
      5 C         139.5923  142.4597  161.0976 C.3     1  UNL1        0.0740
      6 C         139.2675  141.2519  161.9255 C.2     1  UNL1       -0.0153
      7 C         138.4357  140.1465  161.3455 C.2     1  UNL1       -0.0038
      8 C         137.9288  140.2490  159.9375 C.2     1  UNL1        0.0026
      9 C         138.2536  141.4569  159.1096 C.2     1  UNL1        0.0395
     10 C         139.7744  141.1493  163.3336 C.ar    1  UNL1        0.0071
     11 C         139.0374  141.8318  164.4476 C.ar    1  UNL1        0.0020
     12 C         139.5442  141.7293  165.8556 C.ar    1  UNL1        0.0177
     13 C         140.7882  140.9443  166.1497 C.ar    1  UNL1        0.0677
     14 C         141.5252  140.2618  165.0357 C.ar    1  UNL1        0.0290
     15 C         141.0183  140.3644  163.6276 C.ar    1  UNL1        0.0588
     16 CL        141.7553  139.6819  162.5136 Cl      1  UNL1       -0.0822
     17 N         141.2950  140.8418  167.5577 N.ar    1  UNL1       -0.2734
     18 C         140.6275  139.9144  168.5295 C.ar    1  UNL1        0.0829
     19 C         141.1344  139.8119  169.9375 C.ar    1  UNL1        0.0189
     20 C         142.3088  140.6368  170.3738 C.ar    1  UNL1        0.0020
     21 C         142.9763  141.5642  169.4020 C.ar    1  UNL1        0.0347
     22 C         144.1507  142.3891  169.8382 C.3     1  UNL1        0.0360
     23 C         142.4694  141.6667  167.9939 C.ar    1  UNL1        0.2607
     24 O         143.1369  142.5941  167.0221 O.2     1  UNL1       -0.2670
     25 N         135.7317  141.5157  156.3020 N.am    1  UNL1       -0.2996
     26 C         137.0731  141.0173  156.7520 C.2     1  UNL1        0.2654
     27 O         137.5908  139.7016  156.2514 O.2     1  UNL1       -0.2684
     28 H         135.3918  142.3793  156.6305 H       1  UNL1        0.1498
     29 C         133.9951  139.6306  155.8772 C.3     1  UNL1        0.0230
     30 C         134.9081  140.6982  155.3514 C.3     1  UNL1        0.0898
@<TRIPOS>BOND
     1    29    30    1
     2    30    25    1
     3    25    26   am
     4    26    27    2
     5    26     1    1
     6     1     2    2
     7     2     3    1
     8     3     4    2
     9     4     5    1
    10     5     6    1
    11     6    10    1
    12    10    11   ar
    13    11    12   ar
    14    12    13   ar
    15    13    17    1
    16    17    18   ar
    17    18    19   ar
    18    19    20   ar
    19    20    21   ar
    20    21    22    1
    21    21    23   ar
    22    23    24    2
    23    13    14   ar
    24    14    15   ar
    25    15    16    1
    26     6     7    2
    27     7     8    1
    28     8     9    2
    29     9     1    1
    30     9     4    1
    31    15    10   ar
    32    23    17   ar
    33    25    28    1
@<TRIPOS>MOLECULE
*****
 30 33 0 0 0
SMALL
GASTEIGER

@<TRIPOS>ATOM
      1 C         142.1216  139.5154  168.0504 C.2     1  UNL1        0.1571
      2 N         143.2511  138.5875  168.3870 N.2     1  UNL1       -0.1436
      3 N         143.8167  138.0605  167.1015 N.2     1  UNL1       -0.1519
      4 C         143.0367  138.6626  165.9705 C.2     1  UNL1        0.0865
      5 C         143.1451  138.5083  164.4825 C.3     1  UNL1        0.0740
      6 C         142.2058  139.2531  163.5808 C.2     1  UNL1       -0.0153
      7 C         141.1582  140.1523  164.1673 C.2     1  UNL1       -0.0038
      8 C         141.0498  140.3066  165.6554 C.2     1  UNL1        0.0026
      9 C         141.9891  139.5618  166.5570 C.2     1  UNL1        0.0395
     10 C         142.3142  139.0988  162.0927 C.ar    1  UNL1        0.0071
     11 C         143.5642  139.5278  161.3833 C.ar    1  UNL1        0.0020
     12 C         143.6726  139.3735  159.8952 C.ar    1  UNL1        0.0177
     13 C         142.5309  138.7903  159.1165 C.ar    1  UNL1        0.0677
     14 C         141.2808  138.3613  159.8259 C.ar    1  UNL1        0.0290
     15 C         141.1725  138.5156  161.3141 C.ar    1  UNL1        0.0588
     16 CL        139.9224  138.0866  162.0235 Cl      1  UNL1       -0.0822
     17 N         142.6393  138.6360  157.6284 N.ar    1  UNL1       -0.2734
     18 C         142.4813  139.8319  156.7369 C.ar    1  UNL1        0.0829
     19 C         142.5897  139.6776  155.2488 C.ar    1  UNL1        0.0189
     20 C         142.8561  138.3274  154.6522 C.ar    1  UNL1        0.0020
     21 C         143.0141  137.1314  155.5437 C.ar    1  UNL1        0.0347
     22 C         143.2804  135.7812  154.9471 C.3     1  UNL1        0.0360
     23 C         142.9056  137.2858  157.0318 C.ar    1  UNL1        0.2607
     24 O         143.0636  136.0898  157.9233 O.2     1  UNL1       -0.2670
     25 N         141.2109  141.7631  168.9825 N.am    1  UNL1       -0.2996
     26 C         141.2734  140.2652  169.0345 C.2     1  UNL1        0.2654
     27 O         140.4879  139.5173  170.0706 O.2     1  UNL1       -0.2684
     28 H         141.7264  142.2540  168.3025 H       1  UNL1        0.1498
     29 C         140.3846  144.0126  169.9858 C.3     1  UNL1        0.0230
     30 C         140.3627  142.5129  169.9666 C.3     1  UNL1        0.0898
@<TRIPOS>BOND
     1    29    30    1
     2    30    25    1
     3    25    26   am
     4    26    27    2
     5    26     1    1
     6     1     2    2
     7     2     3    1
     8     3     4    2
     9     4     5    1
    10     5     6    1
    11     6    10    1
    12    10    11   ar
    13    11    12   ar
    14    12    13   ar
    15    13    17    1
    16    17    18   ar
    17    18    19   ar
    18    19    20   ar
    19    20    21   ar
    20    21    22    1
    21    21    23   ar
    22    23    24    2
    23    13    14   ar
    24    14    15   ar
    25    15    16    1
    26     6     7    2
    27     7     8    1
    28     8     9    2
    29     9     1    1
    30     9     4    1
    31    15    10   ar
    32    23    17   ar
    33    25    28    1
@<TRIPOS>MOLECULE
*****
 30 33 0 0 0
SMALL
GASTEIGER

@<TRIPOS>ATOM
      1 C         143.6614  143.0441  157.9535 C.2     1  UNL1        0.1571
      2 N         142.8176  144.2757  157.8082 N.2     1  UNL1       -0.1436
      3 N         142.1684  144.5515  159.1320 N.2     1  UNL1       -0.1519
      4 C         142.6110  143.4904  160.0954 C.2     1  UNL1        0.0865
      5 C         142.2929  143.2522  161.5418 C.3     1  UNL1        0.0740
      6 C         142.8976  142.0822  162.2598 C.2     1  UNL1       -0.0153
      7 C         143.8204  141.1506  161.5314 C.2     1  UNL1       -0.0038
      8 C         144.1384  141.3888  160.0850 C.2     1  UNL1        0.0026
      9 C         143.5337  142.5587  159.3670 C.2     1  UNL1        0.0395
     10 C         142.5796  141.8439  163.7062 C.ar    1  UNL1        0.0071
     11 C         143.3982  142.5081  164.7734 C.ar    1  UNL1        0.0020
     12 C         143.0803  142.2698  166.2198 C.ar    1  UNL1        0.0177
     13 C         141.9436  141.3674  166.5991 C.ar    1  UNL1        0.0677
     14 C         141.1250  140.7033  165.5319 C.ar    1  UNL1        0.0290
     15 C         141.4430  140.9416  164.0855 C.ar    1  UNL1        0.0588
     16 CL        140.6244  140.2774  163.0183 Cl      1  UNL1       -0.0822
     17 N         141.6257  141.1291  168.0455 N.ar    1  UNL1       -0.2734
     18 C         142.1761  139.9220  168.7454 C.ar    1  UNL1        0.0829
     19 C         141.8581  139.6838  170.1918 C.ar    1  UNL1        0.0189
     20 C         140.9897  140.6526  170.9383 C.ar    1  UNL1        0.0020
     21 C         140.4392  141.8597  170.2383 C.ar    1  UNL1        0.0347
     22 C         139.5708  142.8285  170.9848 C.3     1  UNL1        0.0360
     23 C         140.7573  142.0979  168.7919 C.ar    1  UNL1        0.2607
     24 O         140.2068  143.3050  168.0919 O.2     1  UNL1       -0.2670
     25 N         145.9837  142.5143  156.9158 N.am    1  UNL1       -0.2996
     26 C         144.4878  142.4092  156.8746 C.2     1  UNL1        0.2654
     27 O         143.8186  141.6694  155.7545 O.2     1  UNL1       -0.2684
     28 H         146.4230  142.9999  157.6510 H       1  UNL1        0.1498
     29 C         148.2978  142.0699  155.8218 C.3     1  UNL1        0.0230
     30 C         146.8101  141.8794  155.8369 C.3     1  UNL1        0.0898
@<TRIPOS>BOND
     1    29    30    1
     2    30    25    1
     3    25    26   am
     4    26    27    2
     5    26     1    1
     6     1     2    2
     7     2     3    1
     8     3     4    2
     9     4     5    1
    10     5     6    1
    11     6    10    1
    12    10    11   ar
    13    11    12   ar
    14    12    13   ar
    15    13    17    1
    16    17    18   ar
    17    18    19   ar
    18    19    20   ar
    19    20    21   ar
    20    21    22    1
    21    21    23   ar
    22    23    24    2
    23    13    14   ar
    24    14    15   ar
    25    15    16    1
    26     6     7    2
    27     7     8    1
    28     8     9    2
    29     9     1    1
    30     9     4    1
    31    15    10   ar
    32    23    17   ar
    33    25    28    1
@<TRIPOS>MOLECULE
*****
 30 33 0 0 0
SMALL
GASTEIGER

@<TRIPOS>ATOM
      1 C         142.7154  139.4789  167.6003 C.2     1  UNL1        0.1571
      2 N         143.5739  138.3630  167.0831 N.2     1  UNL1       -0.1436
      3 N         143.7631  138.5687  165.6093 N.2     1  UNL1       -0.1519
      4 C         143.0215  139.8117  165.2158 C.2     1  UNL1        0.0865
      5 C         142.8522  140.5040  163.8959 C.3     1  UNL1        0.0740
      6 C         142.0353  141.7589  163.8066 C.2     1  UNL1       -0.0153
      7 C         141.3878  142.3214  165.0371 C.2     1  UNL1       -0.0038
      8 C         141.5571  141.6292  166.3570 C.2     1  UNL1        0.0026
      9 C         142.3740  140.3743  166.4463 C.2     1  UNL1        0.0395
     10 C         141.8660  142.4512  162.4867 C.ar    1  UNL1        0.0071
     11 C         140.8429  141.9579  161.5069 C.ar    1  UNL1        0.0020
     12 C         140.6736  142.6502  160.1870 C.ar    1  UNL1        0.0177
     13 C         141.5272  143.8358  159.8470 C.ar    1  UNL1        0.0677
     14 C         142.5503  144.3291  160.8268 C.ar    1  UNL1        0.0290
     15 C         142.7196  143.6368  162.1467 C.ar    1  UNL1        0.0588
     16 CL        143.7427  144.1301  163.1265 Cl      1  UNL1       -0.0822
     17 N         141.3579  144.5281  158.5271 N.ar    1  UNL1       -0.2734
     18 C         140.2971  145.5754  158.3602 C.ar    1  UNL1        0.0829
     19 C         140.1277  146.2677  157.0404 C.ar    1  UNL1        0.0189
     20 C         141.0191  145.9127  155.8874 C.ar    1  UNL1        0.0020
     21 C         142.0799  144.8654  156.0543 C.ar    1  UNL1        0.0347
     22 C         142.9714  144.5104  154.9014 C.3     1  UNL1        0.0360
     23 C         142.2493  144.1731  157.3742 C.ar    1  UNL1        0.2607
     24 O         143.3101  143.1258  157.5411 O.2     1  UNL1       -0.2670
     25 N         140.8436  139.9934  169.3272 N.am    1  UNL1       -0.2996
     26 C         142.2755  139.6666  169.0220 C.2     1  UNL1        0.2654
     27 O         143.2673  139.5275  170.1386 O.2     1  UNL1       -0.2684
     28 H         140.1926  140.0847  168.5943 H       1  UNL1        0.1498
     29 C         140.6327  141.4937  171.4377 C.3     1  UNL1        0.0230
     30 C         140.4037  140.1811  170.7489 C.3     1  UNL1        0.0898
@<TRIPOS>BOND
     1    29    30    1
     2    30    25    1
     3    25    26   am
     4    26    27    2
     5    26     1    1
     6     1     2    2
     7     2     3    1
     8     3     4    2
     9     4     5    1
    10     5     6    1
    11     6    10    1
    12    10    11   ar
    13    11    12   ar
    14    12    13   ar
    15    13    17    1
    16    17    18   ar
    17    18    19   ar
    18    19    20   ar
    19    20    21   ar
    20    21    22    1
    21    21    23   ar
    22    23    24    2
    23    13    14   ar
    24    14    15   ar
    25    15    16    1
    26     6     7    2
    27     7     8    1
    28     8     9    2
    29     9     1    1
    30     9     4    1
    31    15    10   ar
    32    23    17   ar
    33    25    28    1
@<TRIPOS>MOLECULE
*****
 30 33 0 0 0
SMALL
GASTEIGER

@<TRIPOS>ATOM
      1 C         139.2361  139.7622  167.5784 C.2     1  UNL1        0.1571
      2 N         138.2322  138.7396  167.1349 N.2     1  UNL1       -0.1436
      3 N         138.4708  138.4559  165.6815 N.2     1  UNL1       -0.1519
      4 C         139.6221  139.3031  165.2267 C.2     1  UNL1        0.0865
      5 C         140.3009  139.4437  163.8965 C.3     1  UNL1        0.0740
      6 C         141.4526  140.3916  163.7387 C.2     1  UNL1       -0.0153
      7 C         141.9256  141.1989  164.9111 C.2     1  UNL1       -0.0038
      8 C         141.2468  141.0583  166.2413 C.2     1  UNL1        0.0026
      9 C         140.0951  140.1104  166.3991 C.2     1  UNL1        0.0395
     10 C         142.1315  140.5322  162.4084 C.ar    1  UNL1        0.0071
     11 C         141.5145  141.3825  161.3378 C.ar    1  UNL1        0.0020
     12 C         142.1933  141.5231  160.0076 C.ar    1  UNL1        0.0177
     13 C         143.4891  140.8134  159.7480 C.ar    1  UNL1        0.0677
     14 C         144.1061  139.9631  160.8187 C.ar    1  UNL1        0.0290
     15 C         143.4272  139.8225  162.1489 C.ar    1  UNL1        0.0588
     16 CL        144.0442  138.9722  163.2196 Cl      1  UNL1       -0.0822
     17 N         144.1679  140.9541  158.4178 N.ar    1  UNL1       -0.2734
     18 C         144.9204  142.2092  158.0888 C.ar    1  UNL1        0.0829
     19 C         145.5992  142.3499  156.7586 C.ar    1  UNL1        0.0189
     20 C         145.5254  141.2353  155.7574 C.ar    1  UNL1        0.0020
     21 C         144.7729  139.9801  156.0864 C.ar    1  UNL1        0.0347
     22 C         144.6991  138.8656  155.0853 C.3     1  UNL1        0.0360
     23 C         144.0941  139.8395  157.4167 C.ar    1  UNL1        0.2607
     24 O         143.3416  138.5844  157.7457 O.2     1  UNL1       -0.2670
     25 N         140.1936  141.5608  169.1904 N.am    1  UNL1       -0.2996
     26 C         139.3593  140.3358  168.9589 C.2     1  UNL1        0.2654
     27 O         138.6484  139.6845  170.1080 O.2     1  UNL1       -0.2684
     28 H         140.6602  141.9883  168.4362 H       1  UNL1        0.1498
     29 C         141.5044  141.7936  171.4213 C.3     1  UNL1        0.0230
     30 C         140.3168  142.1345  170.5709 C.3     1  UNL1        0.0898
@<TRIPOS>BOND
     1    29    30    1
     2    30    25    1
     3    25    26   am
     4    26    27    2
     5    26     1    1
     6     1     2    2
     7     2     3    1
     8     3     4    2
     9     4     5    1
    10     5     6    1
    11     6    10    1
    12    10    11   ar
    13    11    12   ar
    14    12    13   ar
    15    13    17    1
    16    17    18   ar
    17    18    19   ar
    18    19    20   ar
    19    20    21   ar
    20    21    22    1
    21    21    23   ar
    22    23    24    2
    23    13    14   ar
    24    14    15   ar
    25    15    16    1
    26     6     7    2
    27     7     8    1
    28     8     9    2
    29     9     1    1
    30     9     4    1
    31    15    10   ar
    32    23    17   ar
    33    25    28    1
