@<TRIPOS>MOLECULE
*****
 24 27 0 0 0
SMALL
GASTEIGER

@<TRIPOS>ATOM
      1 C         139.2285  139.9070  168.9076 C.3     1  UNL1        0.1151
      2 N         139.3522  139.9440  167.4131 N.am    1  UNL1       -0.2745
      3 C         138.4039  139.1525  166.5621 C.2     1  UNL1        0.2491
      4 O         137.3317  138.3240  167.2056 O.2     1  UNL1       -0.2699
      5 C         138.5276  139.1895  165.0677 C.ar    1  UNL1        0.0537
      6 C         139.0920  138.0102  164.3324 C.ar    1  UNL1        0.0061
      7 C         139.2157  138.0473  162.8380 C.ar    1  UNL1        0.0193
      8 C         138.7751  139.2636  162.0789 C.ar    1  UNL1        0.0829
      9 C         138.2107  140.4429  162.8141 C.ar    1  UNL1        0.0193
     10 C         138.0870  140.4059  164.3085 C.ar    1  UNL1        0.0061
     11 N         138.8988  139.3006  160.5844 N.ar    1  UNL1       -0.2281
     12 C         138.2077  140.2645  159.6661 C.ar    1  UNL1        0.1020
     13 C         138.6171  139.9399  158.2600 C.ar    1  UNL1        0.0431
     14 C         139.5613  138.7754  158.3094 C.ar    1  UNL1        0.1221
     15 N         139.7354  138.3803  159.7459 N.ar    1  UNL1       -0.1635
     16 C         140.4244  140.7725  166.7696 C.3     1  UNL1        0.0930
     17 C         140.4333  142.2681  166.6549 C.3     1  UNL1        0.0386
     18 C         141.6903  142.6709  165.9423 C.3     1  UNL1        0.0738
     19 N         142.4582  141.4242  165.6165 N.3     1  UNL1       -0.2725
     20 C         141.6758  140.2510  166.1278 C.3     1  UNL1        0.0921
     21 C         143.7769  141.3617  164.9045 C.3     1  UNL1        0.0576
     22 C         144.6420  140.2595  164.3692 C.3     1  UNL1        0.0160
     23 C         145.6419  141.2734  163.8975 C.3     1  UNL1        0.0028
     24 C         144.7767  142.3756  164.4328 C.3     1  UNL1        0.0160
@<TRIPOS>BOND
     1     1     2    1
     2     2     3   am
     3     3     4    2
     4     3     5    1
     5     5     6   ar
     6     6     7   ar
     7     7     8   ar
     8     8    11    1
     9    11    12   ar
    10    12    13   ar
    11    13    14   ar
    12    14    15   ar
    13     8     9   ar
    14     9    10   ar
    15    16     2    1
    16    16    17    1
    17    17    18    1
    18    18    19    1
    19    19    21    1
    20    21    22    1
    21    22    23    1
    22    23    24    1
    23    19    20    1
    24    10     5   ar
    25    20    16    1
    26    15    11   ar
    27    24    21    1
@<TRIPOS>MOLECULE
*****
 24 27 0 0 0
SMALL
GASTEIGER

@<TRIPOS>ATOM
      1 C         139.5452  138.5764  159.4450 C.3     1  UNL1        0.1151
      2 N         139.7528  138.8731  160.9007 N.am    1  UNL1       -0.2745
      3 C         138.5747  139.1659  161.7818 C.2     1  UNL1        0.2491
      4 O         137.1891  139.1621  161.2073 O.2     1  UNL1       -0.2699
      5 C         138.7823  139.4626  163.2375 C.ar    1  UNL1        0.0537
      6 C         138.8648  140.8842  163.7088 C.ar    1  UNL1        0.0061
      7 C         139.0723  141.1808  165.1645 C.ar    1  UNL1        0.0193
      8 C         139.1973  140.0559  166.1487 C.ar    1  UNL1        0.0829
      9 C         139.1148  138.6343  165.6774 C.ar    1  UNL1        0.0193
     10 C         138.9073  138.3376  164.2218 C.ar    1  UNL1        0.0061
     11 N         139.4049  140.3525  167.6044 N.ar    1  UNL1       -0.2281
     12 C         140.2638  141.4457  168.1677 C.ar    1  UNL1        0.1020
     13 C         140.1797  141.3770  169.6638 C.ar    1  UNL1        0.0431
     14 C         139.2688  140.2413  170.0251 C.ar    1  UNL1        0.1221
     15 N         138.7900  139.6082  168.7524 N.ar    1  UNL1       -0.1635
     16 C         141.1384  138.8769  161.4752 C.3     1  UNL1        0.0930
     17 C         141.9721  137.6664  161.7744 C.3     1  UNL1        0.0386
     18 C         143.2826  138.1332  162.3355 C.3     1  UNL1        0.0738
     19 N         143.2588  139.6323  162.3830 N.3     1  UNL1       -0.2725
     20 C         141.9336  140.0919  161.8513 C.3     1  UNL1        0.0921
     21 C         144.3657  140.5165  162.8757 C.3     1  UNL1        0.0576
     22 C         145.2625  140.5231  164.0780 C.3     1  UNL1        0.0160
     23 C         145.9312  141.7670  163.5724 C.3     1  UNL1        0.0028
     24 C         145.0343  141.7604  162.3701 C.3     1  UNL1        0.0160
@<TRIPOS>BOND
     1     1     2    1
     2     2     3   am
     3     3     4    2
     4     3     5    1
     5     5     6   ar
     6     6     7   ar
     7     7     8   ar
     8     8    11    1
     9    11    12   ar
    10    12    13   ar
    11    13    14   ar
    12    14    15   ar
    13     8     9   ar
    14     9    10   ar
    15    16     2    1
    16    16    17    1
    17    17    18    1
    18    18    19    1
    19    19    21    1
    20    21    22    1
    21    22    23    1
    22    23    24    1
    23    19    20    1
    24    10     5   ar
    25    20    16    1
    26    15    11   ar
    27    24    21    1
@<TRIPOS>MOLECULE
*****
 24 27 0 0 0
SMALL
GASTEIGER

@<TRIPOS>ATOM
      1 C         142.5965  139.3916  168.8342 C.3     1  UNL1        0.1151
      2 N         142.3519  139.3338  167.3553 N.am    1  UNL1       -0.2745
      3 C         143.2125  138.4657  166.4861 C.2     1  UNL1        0.2491
      4 O         144.3178  137.6552  167.0956 O.2     1  UNL1       -0.2699
      5 C         142.9679  138.4079  165.0072 C.ar    1  UNL1        0.0537
      6 C         141.8128  137.6171  164.4685 C.ar    1  UNL1        0.0061
      7 C         141.5682  137.5594  162.9897 C.ar    1  UNL1        0.0193
      8 C         142.4787  138.2925  162.0497 C.ar    1  UNL1        0.0829
      9 C         143.6338  139.0833  162.5885 C.ar    1  UNL1        0.0193
     10 C         143.8784  139.1410  164.0673 C.ar    1  UNL1        0.0061
     11 N         142.2340  138.2347  160.5709 N.ar    1  UNL1       -0.2281
     12 C         140.9566  138.5982  159.8737 C.ar    1  UNL1        0.1020
     13 C         141.1569  138.3915  158.4016 C.ar    1  UNL1        0.0431
     14 C         142.5582  137.9003  158.1889 C.ar    1  UNL1        0.1221
     15 N         143.2239  137.8034  159.5296 N.ar    1  UNL1       -0.1635
     16 C         141.2466  140.1443  166.7458 C.3     1  UNL1        0.0930
     17 C         139.8028  139.7460  166.6646 C.3     1  UNL1        0.0386
     18 C         139.0549  140.8509  165.9791 C.3     1  UNL1        0.0738
     19 N         140.0366  141.9320  165.6365 N.3     1  UNL1       -0.2725
     20 C         141.3911  141.4953  166.1104 C.3     1  UNL1        0.0921
     21 C         139.7194  143.2232  164.9421 C.3     1  UNL1        0.0576
     22 C         140.0450  143.8150  163.6028 C.3     1  UNL1        0.0160
     23 C         139.2709  145.0492  163.9601 C.3     1  UNL1        0.0028
     24 C         138.9453  144.4573  165.2993 C.3     1  UNL1        0.0160
@<TRIPOS>BOND
     1     1     2    1
     2     2     3   am
     3     3     4    2
     4     3     5    1
     5     5     6   ar
     6     6     7   ar
     7     7     8   ar
     8     8    11    1
     9    11    12   ar
    10    12    13   ar
    11    13    14   ar
    12    14    15   ar
    13     8     9   ar
    14     9    10   ar
    15    16     2    1
    16    16    17    1
    17    17    18    1
    18    18    19    1
    19    19    21    1
    20    21    22    1
    21    22    23    1
    22    23    24    1
    23    19    20    1
    24    10     5   ar
    25    20    16    1
    26    15    11   ar
    27    24    21    1
@<TRIPOS>MOLECULE
*****
 24 27 0 0 0
SMALL
GASTEIGER

@<TRIPOS>ATOM
      1 C         139.1425  139.9005  168.6970 C.3     1  UNL1        0.1151
      2 N         139.4804  139.7878  167.2398 N.am    1  UNL1       -0.2745
      3 C         138.5457  139.0778  166.3060 C.2     1  UNL1        0.2491
      4 O         137.2731  138.4804  166.8292 O.2     1  UNL1       -0.2699
      5 C         138.8836  138.9651  164.8488 C.ar    1  UNL1        0.0537
      6 C         138.3541  139.9763  163.8758 C.ar    1  UNL1        0.0061
      7 C         138.6919  139.8636  162.4187 C.ar    1  UNL1        0.0193
      8 C         139.5593  138.7396  161.9347 C.ar    1  UNL1        0.0829
      9 C         140.0888  137.7283  162.9077 C.ar    1  UNL1        0.0193
     10 C         139.7509  137.8410  164.3648 C.ar    1  UNL1        0.0061
     11 N         139.8971  138.6269  160.4775 N.ar    1  UNL1       -0.2281
     12 C         141.2676  138.4208  159.9036 C.ar    1  UNL1        0.1020
     13 C         141.1414  138.3671  158.4099 C.ar    1  UNL1        0.0431
     14 C         139.6928  138.5399  158.0607 C.ar    1  UNL1        0.1221
     15 N         138.9239  138.7005  159.3385 N.ar    1  UNL1       -0.1635
     16 C         140.7530  140.3851  166.7167 C.3     1  UNL1        0.0930
     17 C         142.1090  139.7452  166.7564 C.3     1  UNL1        0.0386
     18 C         143.0871  140.6919  166.1262 C.3     1  UNL1        0.0738
     19 N         142.3355  141.9170  165.6969 N.3     1  UNL1       -0.2725
     20 C         140.8930  141.7274  166.0618 C.3     1  UNL1        0.0921
     21 C         142.9232  143.1203  165.0213 C.3     1  UNL1        0.0576
     22 C         142.3950  144.1898  164.1119 C.3     1  UNL1        0.0160
     23 C         143.7545  144.8221  164.0659 C.3     1  UNL1        0.0028
     24 C         144.2827  143.7526  164.9754 C.3     1  UNL1        0.0160
@<TRIPOS>BOND
     1     1     2    1
     2     2     3   am
     3     3     4    2
     4     3     5    1
     5     5     6   ar
     6     6     7   ar
     7     7     8   ar
     8     8    11    1
     9    11    12   ar
    10    12    13   ar
    11    13    14   ar
    12    14    15   ar
    13     8     9   ar
    14     9    10   ar
    15    16     2    1
    16    16    17    1
    17    17    18    1
    18    18    19    1
    19    19    21    1
    20    21    22    1
    21    22    23    1
    22    23    24    1
    23    19    20    1
    24    10     5   ar
    25    20    16    1
    26    15    11   ar
    27    24    21    1
@<TRIPOS>MOLECULE
*****
 24 27 0 0 0
SMALL
GASTEIGER

@<TRIPOS>ATOM
      1 C         139.5239  138.1301  160.8415 C.3     1  UNL1        0.1151
      2 N         139.6036  138.8896  162.1327 N.am    1  UNL1       -0.2745
      3 C         140.1977  138.2420  163.3482 C.2     1  UNL1        0.2491
      4 O         140.7122  136.8350  163.2728 O.2     1  UNL1       -0.2699
      5 C         140.2774  139.0015  164.6394 C.ar    1  UNL1        0.0537
      6 C         141.4661  139.8701  164.9264 C.ar    1  UNL1        0.0061
      7 C         141.5457  140.6295  166.2175 C.ar    1  UNL1        0.0193
      8 C         140.4367  140.5203  167.2215 C.ar    1  UNL1        0.0829
      9 C         139.2480  139.6517  166.9345 C.ar    1  UNL1        0.0193
     10 C         139.1683  138.8923  165.6434 C.ar    1  UNL1        0.0061
     11 N         140.5163  141.2798  168.5127 N.ar    1  UNL1       -0.2281
     12 C         140.5804  142.7716  168.6555 C.ar    1  UNL1        0.1020
     13 C         140.6496  143.0946  170.1187 C.ar    1  UNL1        0.0431
     14 C         140.6283  141.8024  170.8801 C.ar    1  UNL1        0.1221
     15 N         140.5460  140.6808  169.8875 N.ar    1  UNL1       -0.1635
     16 C         139.0891  140.2966  162.2081 C.3     1  UNL1        0.0930
     17 C         137.6969  140.7072  162.5864 C.3     1  UNL1        0.0386
     18 C         137.6239  142.2044  162.5306 C.3     1  UNL1        0.0738
     19 N         138.9710  142.7191  162.1179 N.3     1  UNL1       -0.2725
     20 C         139.8766  141.5400  161.9186 C.3     1  UNL1        0.0921
     21 C         139.3467  144.1599  161.9363 C.3     1  UNL1        0.0576
     22 C         140.1308  144.9311  160.9164 C.3     1  UNL1        0.0160
     23 C         139.8778  146.1975  161.6796 C.3     1  UNL1        0.0028
     24 C         139.0937  145.4262  162.6995 C.3     1  UNL1        0.0160
@<TRIPOS>BOND
     1     1     2    1
     2     2     3   am
     3     3     4    2
     4     3     5    1
     5     5     6   ar
     6     6     7   ar
     7     7     8   ar
     8     8    11    1
     9    11    12   ar
    10    12    13   ar
    11    13    14   ar
    12    14    15   ar
    13     8     9   ar
    14     9    10   ar
    15    16     2    1
    16    16    17    1
    17    17    18    1
    18    18    19    1
    19    19    21    1
    20    21    22    1
    21    22    23    1
    22    23    24    1
    23    19    20    1
    24    10     5   ar
    25    20    16    1
    26    15    11   ar
    27    24    21    1
@<TRIPOS>MOLECULE
*****
 24 27 0 0 0
SMALL
GASTEIGER

@<TRIPOS>ATOM
      1 C         142.5968  139.5119  169.4340 C.3     1  UNL1        0.1151
      2 N         142.2765  140.2287  168.1559 N.am    1  UNL1       -0.2745
      3 C         142.1318  141.7217  168.1493 C.2     1  UNL1        0.2491
      4 O         142.3073  142.4979  169.4208 O.2     1  UNL1       -0.2699
      5 C         141.8115  142.4385  166.8711 C.ar    1  UNL1        0.0537
      6 C         142.8861  142.6671  165.8499 C.ar    1  UNL1        0.0061
      7 C         142.5658  143.3840  164.5718 C.ar    1  UNL1        0.0193
      8 C         141.1709  143.8722  164.3150 C.ar    1  UNL1        0.0829
      9 C         140.0963  143.6436  165.3362 C.ar    1  UNL1        0.0193
     10 C         140.4166  142.9268  166.6143 C.ar    1  UNL1        0.0061
     11 N         140.8506  144.5891  163.0368 N.ar    1  UNL1       -0.2281
     12 C         141.6148  144.4819  161.7505 C.ar    1  UNL1        0.1020
     13 C         140.9465  145.3655  160.7393 C.ar    1  UNL1        0.0431
     14 C         139.7692  146.0187  161.4007 C.ar    1  UNL1        0.1221
     15 N         139.7100  145.5389  162.8206 N.ar    1  UNL1       -0.1635
     16 C         142.1010  139.4526  166.8844 C.3     1  UNL1        0.0930
     17 C         143.1387  138.5926  166.2259 C.3     1  UNL1        0.0386
     18 C         142.5360  138.0086  164.9827 C.3     1  UNL1        0.0738
     19 N         141.1258  138.5076  164.8727 N.3     1  UNL1       -0.2725
     20 C         140.8569  139.4000  166.0480 C.3     1  UNL1        0.0921
     21 C         140.1548  138.1731  163.7794 C.3     1  UNL1        0.0576
     22 C         138.6812  137.9003  163.7164 C.3     1  UNL1        0.0160
     23 C         138.7818  137.6999  162.2332 C.3     1  UNL1        0.0028
     24 C         140.2554  137.9726  162.2963 C.3     1  UNL1        0.0160
@<TRIPOS>BOND
     1     1     2    1
     2     2     3   am
     3     3     4    2
     4     3     5    1
     5     5     6   ar
     6     6     7   ar
     7     7     8   ar
     8     8    11    1
     9    11    12   ar
    10    12    13   ar
    11    13    14   ar
    12    14    15   ar
    13     8     9   ar
    14     9    10   ar
    15    16     2    1
    16    16    17    1
    17    17    18    1
    18    18    19    1
    19    19    21    1
    20    21    22    1
    21    22    23    1
    22    23    24    1
    23    19    20    1
    24    10     5   ar
    25    20    16    1
    26    15    11   ar
    27    24    21    1
@<TRIPOS>MOLECULE
*****
 24 27 0 0 0
SMALL
GASTEIGER

@<TRIPOS>ATOM
      1 C         138.2401  139.4697  161.0227 C.3     1  UNL1        0.1151
      2 N         138.8336  139.8053  162.3588 N.am    1  UNL1       -0.2745
      3 C         138.9556  138.7452  163.4129 C.2     1  UNL1        0.2491
      4 O         138.4842  137.3494  163.1309 O.2     1  UNL1       -0.2699
      5 C         139.5491  139.0808  164.7490 C.ar    1  UNL1        0.0537
      6 C         138.6682  139.5735  165.8586 C.ar    1  UNL1        0.0061
      7 C         139.2617  139.9090  167.1946 C.ar    1  UNL1        0.0193
      8 C         140.7362  139.7519  167.4211 C.ar    1  UNL1        0.0829
      9 C         141.6171  139.2593  166.3116 C.ar    1  UNL1        0.0193
     10 C         141.0236  138.9237  164.9755 C.ar    1  UNL1        0.0061
     11 N         141.3297  140.0876  168.7573 N.ar    1  UNL1       -0.2281
     12 C         142.5192  139.4239  169.3854 C.ar    1  UNL1        0.1020
     13 C         142.7626  140.0718  170.7161 C.ar    1  UNL1        0.0431
     14 C         141.7234  141.1360  170.9104 C.ar    1  UNL1        0.1221
     15 N         140.8379  141.1457  169.6998 N.ar    1  UNL1       -0.1635
     16 C         139.3050  141.2011  162.6408 C.3     1  UNL1        0.0930
     17 C         138.4324  142.3794  162.9574 C.3     1  UNL1        0.0386
     18 C         139.3199  143.5702  163.1680 C.3     1  UNL1        0.0738
     19 N         140.7410  143.1279  162.9815 N.3     1  UNL1       -0.2725
     20 C         140.7318  141.6638  162.6557 C.3     1  UNL1        0.0921
     21 C         141.9577  143.9971  163.1000 C.3     1  UNL1        0.0576
     22 C         143.3347  143.9811  162.5053 C.3     1  UNL1        0.0160
     23 C         143.6783  145.2265  163.2676 C.3     1  UNL1        0.0028
     24 C         142.3013  145.2424  163.8623 C.3     1  UNL1        0.0160
@<TRIPOS>BOND
     1     1     2    1
     2     2     3   am
     3     3     4    2
     4     3     5    1
     5     5     6   ar
     6     6     7   ar
     7     7     8   ar
     8     8    11    1
     9    11    12   ar
    10    12    13   ar
    11    13    14   ar
    12    14    15   ar
    13     8     9   ar
    14     9    10   ar
    15    16     2    1
    16    16    17    1
    17    17    18    1
    18    18    19    1
    19    19    21    1
    20    21    22    1
    21    22    23    1
    22    23    24    1
    23    19    20    1
    24    10     5   ar
    25    20    16    1
    26    15    11   ar
    27    24    21    1
@<TRIPOS>MOLECULE
*****
 24 27 0 0 0
SMALL
GASTEIGER

@<TRIPOS>ATOM
      1 C         144.3572  142.6943  160.5544 C.3     1  UNL1        0.1151
      2 N         143.6430  142.4058  161.8416 N.am    1  UNL1       -0.2745
      3 C         143.6321  143.4286  162.9387 C.2     1  UNL1        0.2491
      4 O         144.3353  144.7398  162.7488 O.2     1  UNL1       -0.2699
      5 C         142.9178  143.1401  164.2259 C.ar    1  UNL1        0.0537
      6 C         143.6487  142.4808  165.3577 C.ar    1  UNL1        0.0061
      7 C         142.9345  142.1923  166.6448 C.ar    1  UNL1        0.0193
      8 C         141.4894  142.5633  166.8001 C.ar    1  UNL1        0.0829
      9 C         140.7585  143.2226  165.6683 C.ar    1  UNL1        0.0193
     10 C         141.4727  143.5110  164.3812 C.ar    1  UNL1        0.0061
     11 N         140.7751  142.2748  168.0873 N.ar    1  UNL1       -0.2281
     12 C         140.1263  140.9758  168.4636 C.ar    1  UNL1        0.1020
     13 C         139.5345  141.1328  169.8329 C.ar    1  UNL1        0.0431
     14 C         139.8176  142.5289  170.3029 C.ar    1  UNL1        0.1221
     15 N         140.5843  143.2347  169.2240 N.ar    1  UNL1       -0.1635
     16 C         142.9398  141.0945  162.0315 C.3     1  UNL1        0.0930
     17 C         143.5770  139.8065  162.4615 C.3     1  UNL1        0.0386
     18 C         142.5069  138.7570  162.5206 C.3     1  UNL1        0.0738
     19 N         141.2083  139.3964  162.1270 N.3     1  UNL1       -0.2725
     20 C         141.4759  140.8411  161.8248 C.3     1  UNL1        0.0921
     21 C         139.8761  138.7115  162.0494 C.3     1  UNL1        0.0576
     22 C         139.0006  137.9811  163.0240 C.3     1  UNL1        0.0160
     23 C         137.9921  137.7429  161.9395 C.3     1  UNL1        0.0028
     24 C         138.8676  138.4733  160.9649 C.3     1  UNL1        0.0160
@<TRIPOS>BOND
     1     1     2    1
     2     2     3   am
     3     3     4    2
     4     3     5    1
     5     5     6   ar
     6     6     7   ar
     7     7     8   ar
     8     8    11    1
     9    11    12   ar
    10    12    13   ar
    11    13    14   ar
    12    14    15   ar
    13     8     9   ar
    14     9    10   ar
    15    16     2    1
    16    16    17    1
    17    17    18    1
    18    18    19    1
    19    19    21    1
    20    21    22    1
    21    22    23    1
    22    23    24    1
    23    19    20    1
    24    10     5   ar
    25    20    16    1
    26    15    11   ar
    27    24    21    1
@<TRIPOS>MOLECULE
*****
 24 27 0 0 0
SMALL
GASTEIGER

@<TRIPOS>ATOM
      1 C         138.3996  140.9716  160.4396 C.3     1  UNL1        0.1151
      2 N         138.9332  140.7888  161.8296 N.am    1  UNL1       -0.2745
      3 C         138.0443  141.0343  163.0125 C.2     1  UNL1        0.2491
      4 O         136.6217  141.4626  162.8056 O.2     1  UNL1       -0.2699
      5 C         138.5779  140.8515  164.4025 C.ar    1  UNL1        0.0537
      6 C         138.3960  139.5411  165.1094 C.ar    1  UNL1        0.0061
      7 C         138.9296  139.3583  166.4993 C.ar    1  UNL1        0.0193
      8 C         139.6450  140.4860  167.1823 C.ar    1  UNL1        0.0829
      9 C         139.8269  141.7964  166.4754 C.ar    1  UNL1        0.0193
     10 C         139.2933  141.9791  165.0855 C.ar    1  UNL1        0.0061
     11 N         140.1786  140.3032  168.5723 N.ar    1  UNL1       -0.2281
     12 C         139.4075  140.4934  169.8448 C.ar    1  UNL1        0.1020
     13 C         140.3292  140.2059  170.9927 C.ar    1  UNL1        0.0431
     14 C         141.6700  139.8379  170.4296 C.ar    1  UNL1        0.1221
     15 N         141.5769  139.8981  168.9337 N.ar    1  UNL1       -0.1635
     16 C         140.3558  140.3604  162.0365 C.3     1  UNL1        0.0930
     17 C         140.9023  138.9811  161.8156 C.3     1  UNL1        0.0386
     18 C         142.3659  139.0044  162.1432 C.3     1  UNL1        0.0738
     19 N         142.7240  140.3981  162.5667 N.3     1  UNL1       -0.2725
     20 C         141.4816  141.2362  162.5007 C.3     1  UNL1        0.0921
     21 C         144.0853  140.8709  162.9830 C.3     1  UNL1        0.0576
     22 C         144.9789  142.0095  162.5895 C.3     1  UNL1        0.0160
     23 C         146.0105  141.5393  163.5719 C.3     1  UNL1        0.0028
     24 C         145.1168  140.4007  163.9653 C.3     1  UNL1        0.0160
@<TRIPOS>BOND
     1     1     2    1
     2     2     3   am
     3     3     4    2
     4     3     5    1
     5     5     6   ar
     6     6     7   ar
     7     7     8   ar
     8     8    11    1
     9    11    12   ar
    10    12    13   ar
    11    13    14   ar
    12    14    15   ar
    13     8     9   ar
    14     9    10   ar
    15    16     2    1
    16    16    17    1
    17    17    18    1
    18    18    19    1
    19    19    21    1
    20    21    22    1
    21    22    23    1
    22    23    24    1
    23    19    20    1
    24    10     5   ar
    25    20    16    1
    26    15    11   ar
    27    24    21    1
