@<TRIPOS>MOLECULE
*****
 35 39 0 0 0
SMALL
GASTEIGER

@<TRIPOS>ATOM
      1 C         137.9183  140.0727  162.0757 C.3     1  UNL1        0.0570
      2 C         137.7323  140.3929  163.5293 C.3     1  UNL1        0.0331
      3 C         137.7003  141.8219  163.9843 C.3     1  UNL1        0.0735
      4 N         137.8543  142.9306  162.9858 N.3     1  UNL1       -0.2711
      5 C         138.0403  142.6103  161.5322 C.3     1  UNL1        0.0735
      6 C         138.0723  141.1814  161.0772 C.3     1  UNL1        0.0331
      7 N         137.9504  138.6437  161.6208 N.3     1  UNL1       -0.2934
      8 H         137.5463  138.0860  162.3732 H       1  UNL1        0.1236
      9 C         139.2565  138.0010  161.2587 C.3     1  UNL1        0.1152
     10 O         145.9669  141.6875  162.7182 O.2     1  UNL1       -0.2707
     11 C         144.9351  140.6678  163.1001 C.2     1  UNL1        0.2718
     12 C         145.1084  139.8573  164.3503 C.3     1  UNL1        0.2898
     13 O         144.0767  138.8377  164.7321 O.3     1  UNL1       -0.4628
     14 C         142.8716  138.6285  163.8638 C.ar    1  UNL1        0.1708
     15 C         141.8399  137.6089  164.2456 C.ar    1  UNL1        0.0411
     16 C         140.6349  137.3997  163.3773 C.ar    1  UNL1        0.0193
     17 C         140.4615  138.2102  162.1270 C.ar    1  UNL1        0.0765
     18 N         141.4933  139.2298  161.7451 N.ar    1  UNL1       -0.2304
     19 C         142.6984  139.4390  162.6136 C.ar    1  UNL1        0.1682
     20 N         143.7301  140.4586  162.2317 N.am    1  UNL1       -0.2639
     21 H         143.6163  140.9906  161.4111 H       1  UNL1        0.1565
     22 C         137.8222  144.3595  163.4408 C.3     1  UNL1        0.0942
     23 C         138.9535  144.9126  164.2558 C.3     1  UNL1        0.1157
     24 N         140.3498  144.4088  164.0400 N.am    1  UNL1       -0.2515
     25 C         141.0997  144.7865  162.7970 C.2     1  UNL1        0.2740
     26 O         140.4532  145.6680  161.7698 O.2     1  UNL1       -0.2705
     27 C         142.4959  144.2827  162.5812 C.3     1  UNL1        0.2900
     28 O         143.1424  143.4011  163.6084 O.3     1  UNL1       -0.4643
     29 C         142.3925  143.0234  164.8514 C.ar    1  UNL1        0.1529
     30 C         143.0389  142.1420  165.8786 C.ar    1  UNL1        0.0391
     31 C         142.2890  141.7643  167.1216 C.ar    1  UNL1        0.0146
     32 C         140.8928  142.2681  167.3374 C.ar    1  UNL1        0.0591
     33 CL        140.1429  141.8904  168.5804 Cl      1  UNL1       -0.0822
     34 C         140.2463  143.1496  166.3102 C.ar    1  UNL1        0.0294
     35 C         140.9962  143.5273  165.0672 C.ar    1  UNL1        0.0890
@<TRIPOS>BOND
     1    10    11    2
     2    11    12    1
     3    12    13    1
     4    13    14    1
     5    14    15   ar
     6    15    16   ar
     7    16    17   ar
     8    17     9    1
     9     9     7    1
    10     7     1    1
    11     1     2    1
    12     2     3    1
    13     3     4    1
    14     4    22    1
    15    22    23    1
    16    23    24    1
    17    24    25   am
    18    25    26    2
    19    25    27    1
    20    27    28    1
    21    28    29    1
    22    29    30   ar
    23    30    31   ar
    24    31    32   ar
    25    32    33    1
    26    32    34   ar
    27    34    35   ar
    28     4     5    1
    29     5     6    1
    30    17    18   ar
    31    18    19   ar
    32    19    20    1
    33    20    11   am
    34    19    14   ar
    35     6     1    1
    36    35    24    1
    37    35    29   ar
    38     7     8    1
    39    20    21    1
@<TRIPOS>MOLECULE
*****
 35 39 0 0 0
SMALL
GASTEIGER

@<TRIPOS>ATOM
      1 C         144.2266  139.7673  163.2192 C.3     1  UNL1        0.0570
      2 C         143.2881  139.3099  162.1422 C.3     1  UNL1        0.0331
      3 C         142.0597  138.5271  162.5005 C.3     1  UNL1        0.0735
      4 N         141.7699  138.2017  163.9359 N.3     1  UNL1       -0.2711
      5 C         142.7084  138.6592  165.0129 C.3     1  UNL1        0.0735
      6 C         143.9367  139.4420  164.6545 C.3     1  UNL1        0.0331
      7 N         145.4549  140.5501  162.8608 N.3     1  UNL1       -0.2934
      8 H         146.2467  140.0652  163.2831 H       1  UNL1        0.1236
      9 C         145.5680  141.9920  163.2587 C.3     1  UNL1        0.1152
     10 O         140.2596  145.5350  158.7845 O.2     1  UNL1       -0.2707
     11 C         140.8453  145.2649  160.1388 C.2     1  UNL1        0.2718
     12 C         140.2472  145.9058  161.3559 C.3     1  UNL1        0.2898
     13 O         140.8328  145.6357  162.7102 O.3     1  UNL1       -0.4628
     14 C         142.0166  144.7248  162.8473 C.ar    1  UNL1        0.1708
     15 C         142.6022  144.4548  164.2016 C.ar    1  UNL1        0.0411
     16 C         143.7860  143.5438  164.3387 C.ar    1  UNL1        0.0193
     17 C         144.3842  142.9029  163.1216 C.ar    1  UNL1        0.0765
     18 N         143.7985  143.1730  161.7673 N.ar    1  UNL1       -0.2304
     19 C         142.6147  144.0840  161.6302 C.ar    1  UNL1        0.1682
     20 N         142.0291  144.3540  160.2759 N.am    1  UNL1       -0.2639
     21 H         142.4216  143.9334  159.4770 H       1  UNL1        0.1565
     22 C         140.5415  137.4189  164.2942 C.3     1  UNL1        0.0942
     23 C         139.2899  138.1350  164.7071 C.3     1  UNL1        0.1157
     24 N         138.8394  139.3522  163.9551 N.am    1  UNL1       -0.2515
     25 C         138.1473  139.2033  162.6326 C.2     1  UNL1        0.2740
     26 O         137.9058  137.8372  162.0621 O.2     1  UNL1       -0.2705
     27 C         137.6968  140.4205  161.8806 C.3     1  UNL1        0.2900
     28 O         137.9383  141.7866  162.4511 O.3     1  UNL1       -0.4643
     29 C         138.6304  141.9356  163.7736 C.ar    1  UNL1        0.1529
     30 C         138.8719  143.3016  164.3440 C.ar    1  UNL1        0.0391
     31 C         139.5639  143.4505  165.6665 C.ar    1  UNL1        0.0146
     32 C         140.0144  142.2334  166.4185 C.ar    1  UNL1        0.0591
     33 CL        140.7064  142.3823  167.7410 Cl      1  UNL1       -0.0822
     34 C         139.7729  140.8672  165.8480 C.ar    1  UNL1        0.0294
     35 C         139.0809  140.7183  164.5256 C.ar    1  UNL1        0.0890
@<TRIPOS>BOND
     1    10    11    2
     2    11    12    1
     3    12    13    1
     4    13    14    1
     5    14    15   ar
     6    15    16   ar
     7    16    17   ar
     8    17     9    1
     9     9     7    1
    10     7     1    1
    11     1     2    1
    12     2     3    1
    13     3     4    1
    14     4    22    1
    15    22    23    1
    16    23    24    1
    17    24    25   am
    18    25    26    2
    19    25    27    1
    20    27    28    1
    21    28    29    1
    22    29    30   ar
    23    30    31   ar
    24    31    32   ar
    25    32    33    1
    26    32    34   ar
    27    34    35   ar
    28     4     5    1
    29     5     6    1
    30    17    18   ar
    31    18    19   ar
    32    19    20    1
    33    20    11   am
    34    19    14   ar
    35     6     1    1
    36    35    24    1
    37    35    29   ar
    38     7     8    1
    39    20    21    1
@<TRIPOS>MOLECULE
*****
 35 39 0 0 0
SMALL
GASTEIGER

@<TRIPOS>ATOM
      1 C         142.1563  144.5958  163.3776 C.3     1  UNL1        0.0570
      2 C         143.1368  144.0345  162.3910 C.3     1  UNL1        0.0331
      3 C         143.8610  142.7570  162.6973 C.3     1  UNL1        0.0735
      4 N         143.6045  142.0409  163.9901 N.3     1  UNL1       -0.2711
      5 C         142.6239  142.6023  164.9767 C.3     1  UNL1        0.0735
      6 C         141.8998  143.8797  164.6705 C.3     1  UNL1        0.0331
      7 N         141.4322  145.8732  163.0714 N.3     1  UNL1       -0.2934
      8 H         141.2165  146.3114  163.9669 H       1  UNL1        0.1236
      9 C         140.1546  145.8414  162.2860 C.3     1  UNL1        0.1152
     10 O         138.6586  139.3912  158.1742 O.2     1  UNL1       -0.2707
     11 C         138.4111  140.2507  159.3784 C.2     1  UNL1        0.2718
     12 C         137.4175  139.8197  160.4161 C.3     1  UNL1        0.2898
     13 O         137.1700  140.6792  161.6202 O.3     1  UNL1       -0.4628
     14 C         137.9161  141.9698  161.7867 C.ar    1  UNL1        0.1708
     15 C         137.6686  142.8293  162.9908 C.ar    1  UNL1        0.0411
     16 C         138.4147  144.1198  163.1573 C.ar    1  UNL1        0.0193
     17 C         139.4084  144.5509  162.1196 C.ar    1  UNL1        0.0765
     18 N         139.6559  143.6914  160.9154 N.ar    1  UNL1       -0.2304
     19 C         138.9097  142.4008  160.7490 C.ar    1  UNL1        0.1682
     20 N         139.1573  141.5412  159.5448 N.am    1  UNL1       -0.2639
     21 H         139.8095  141.8242  158.8638 H       1  UNL1        0.1565
     22 C         144.3286  140.7635  164.2963 C.3     1  UNL1        0.0942
     23 C         143.6244  139.6588  165.0270 C.3     1  UNL1        0.1157
     24 N         142.4241  139.0002  164.4142 N.am    1  UNL1       -0.2515
     25 C         142.5401  138.3200  163.0823 C.2     1  UNL1        0.2740
     26 O         143.8564  138.2985  162.3632 O.2     1  UNL1       -0.2705
     27 C         141.3398  137.6614  162.4694 C.3     1  UNL1        0.2900
     28 O         140.0235  137.6830  163.1885 O.3     1  UNL1       -0.4643
     29 C         139.9075  138.3632  164.5204 C.ar    1  UNL1        0.1529
     30 C         138.5913  138.3848  165.2394 C.ar    1  UNL1        0.0391
     31 C         138.4754  139.0650  166.5713 C.ar    1  UNL1        0.0146
     32 C         139.6756  139.7236  167.1841 C.ar    1  UNL1        0.0591
     33 CL        139.5596  140.4038  168.5160 Cl      1  UNL1       -0.0822
     34 C         140.9919  139.7020  166.4651 C.ar    1  UNL1        0.0294
     35 C         141.1079  139.0218  165.1332 C.ar    1  UNL1        0.0890
@<TRIPOS>BOND
     1    10    11    2
     2    11    12    1
     3    12    13    1
     4    13    14    1
     5    14    15   ar
     6    15    16   ar
     7    16    17   ar
     8    17     9    1
     9     9     7    1
    10     7     1    1
    11     1     2    1
    12     2     3    1
    13     3     4    1
    14     4    22    1
    15    22    23    1
    16    23    24    1
    17    24    25   am
    18    25    26    2
    19    25    27    1
    20    27    28    1
    21    28    29    1
    22    29    30   ar
    23    30    31   ar
    24    31    32   ar
    25    32    33    1
    26    32    34   ar
    27    34    35   ar
    28     4     5    1
    29     5     6    1
    30    17    18   ar
    31    18    19   ar
    32    19    20    1
    33    20    11   am
    34    19    14   ar
    35     6     1    1
    36    35    24    1
    37    35    29   ar
    38     7     8    1
    39    20    21    1
@<TRIPOS>MOLECULE
*****
 35 39 0 0 0
SMALL
GASTEIGER

@<TRIPOS>ATOM
      1 C         138.0949  141.4596  164.2087 C.3     1  UNL1        0.0570
      2 C         138.7322  142.5103  165.0689 C.3     1  UNL1        0.0331
      3 C         139.0875  143.8448  164.4833 C.3     1  UNL1        0.0735
      4 N         138.8056  144.1286  163.0376 N.3     1  UNL1       -0.2711
      5 C         138.1683  143.0777  162.1775 C.3     1  UNL1        0.0735
      6 C         137.8130  141.7433  162.7631 C.3     1  UNL1        0.0331
      7 N         137.7396  140.1251  164.7943 N.3     1  UNL1       -0.2934
      8 H         137.2759  140.3081  165.6842 H       1  UNL1        0.1236
      9 C         138.8148  139.1150  165.0660 C.3     1  UNL1        0.1152
     10 O         140.7943  141.8623  172.0863 O.2     1  UNL1       -0.2707
     11 C         141.1807  141.2255  170.7842 C.2     1  UNL1        0.2718
     12 C         142.6133  140.8678  170.5203 C.3     1  UNL1        0.2898
     13 O         142.9996  140.2310  169.2182 O.3     1  UNL1       -0.4628
     14 C         141.9535  139.9520  168.1802 C.ar    1  UNL1        0.1708
     15 C         142.3398  139.3153  166.8782 C.ar    1  UNL1        0.0411
     16 C         141.2936  139.0362  165.8401 C.ar    1  UNL1        0.0193
     17 C         139.8610  139.3940  166.1041 C.ar    1  UNL1        0.0765
     18 N         139.4746  140.0308  167.4061 N.ar    1  UNL1       -0.2304
     19 C         140.5209  140.3098  168.4442 C.ar    1  UNL1        0.1682
     20 N         140.1345  140.9465  169.7462 N.am    1  UNL1       -0.2639
     21 H         139.1942  141.1813  169.9194 H       1  UNL1        0.1565
     22 C         139.1609  145.4630  162.4520 C.3     1  UNL1        0.0942
     23 C         140.5955  145.8027  162.1756 C.3     1  UNL1        0.1157
     24 N         141.4216  144.9108  161.2970 N.am    1  UNL1       -0.2515
     25 C         141.0879  144.7749  159.8409 C.2     1  UNL1        0.2740
     26 O         139.9282  145.5310  159.2635 O.2     1  UNL1       -0.2705
     27 C         141.9140  143.8830  158.9622 C.3     1  UNL1        0.2900
     28 O         143.0738  143.1269  159.5396 O.3     1  UNL1       -0.4643
     29 C         143.4074  143.2628  160.9957 C.ar    1  UNL1        0.1529
     30 C         144.5672  142.5068  161.5732 C.ar    1  UNL1        0.0391
     31 C         144.9008  142.6427  163.0292 C.ar    1  UNL1        0.0146
     32 C         144.0747  143.5346  163.9079 C.ar    1  UNL1        0.0591
     33 CL        144.4084  143.6705  165.3640 Cl      1  UNL1       -0.0822
     34 C         142.9150  144.2907  163.3305 C.ar    1  UNL1        0.0294
     35 C         142.5813  144.1548  161.8744 C.ar    1  UNL1        0.0890
@<TRIPOS>BOND
     1    10    11    2
     2    11    12    1
     3    12    13    1
     4    13    14    1
     5    14    15   ar
     6    15    16   ar
     7    16    17   ar
     8    17     9    1
     9     9     7    1
    10     7     1    1
    11     1     2    1
    12     2     3    1
    13     3     4    1
    14     4    22    1
    15    22    23    1
    16    23    24    1
    17    24    25   am
    18    25    26    2
    19    25    27    1
    20    27    28    1
    21    28    29    1
    22    29    30   ar
    23    30    31   ar
    24    31    32   ar
    25    32    33    1
    26    32    34   ar
    27    34    35   ar
    28     4     5    1
    29     5     6    1
    30    17    18   ar
    31    18    19   ar
    32    19    20    1
    33    20    11   am
    34    19    14   ar
    35     6     1    1
    36    35    24    1
    37    35    29   ar
    38     7     8    1
    39    20    21    1
@<TRIPOS>MOLECULE
*****
 35 39 0 0 0
SMALL
GASTEIGER

@<TRIPOS>ATOM
      1 C         141.4994  137.6745  162.2802 C.3     1  UNL1        0.0570
      2 C         140.0712  137.9975  161.9548 C.3     1  UNL1        0.0331
      3 C         139.0670  138.1518  163.0584 C.3     1  UNL1        0.0735
      4 N         139.4910  137.9830  164.4873 N.3     1  UNL1       -0.2711
      5 C         140.9193  137.6601  164.8126 C.3     1  UNL1        0.0735
      6 C         141.9235  137.5058  163.7091 C.3     1  UNL1        0.0331
      7 N         142.5036  137.5203  161.1767 N.3     1  UNL1       -0.2934
      8 H         142.8836  136.5769  161.2541 H       1  UNL1        0.1236
      9 C         143.6750  138.4535  161.0927 C.3     1  UNL1        0.1152
     10 O         145.2300  144.2150  166.1064 O.2     1  UNL1       -0.2707
     11 C         144.5615  143.7265  164.8556 C.2     1  UNL1        0.2718
     12 C         143.7427  144.6700  164.0253 C.3     1  UNL1        0.2898
     13 O         143.0742  144.1815  162.7745 O.3     1  UNL1       -0.4628
     14 C         143.2244  142.7495  162.3540 C.ar    1  UNL1        0.1708
     15 C         142.5559  142.2610  161.1033 C.ar    1  UNL1        0.0411
     16 C         142.7061  140.8290  160.6828 C.ar    1  UNL1        0.0193
     17 C         143.5248  139.8855  161.5132 C.ar    1  UNL1        0.0765
     18 N         144.1934  140.3740  162.7639 N.ar    1  UNL1       -0.2304
     19 C         144.0431  141.8060  163.1844 C.ar    1  UNL1        0.1682
     20 N         144.7117  142.2945  164.4351 N.am    1  UNL1       -0.2639
     21 H         145.2490  141.6753  164.9801 H       1  UNL1        0.1565
     22 C         138.4868  138.1373  165.5908 C.3     1  UNL1        0.0942
     23 C         138.2281  139.4897  166.1857 C.3     1  UNL1        0.1157
     24 N         139.1811  140.6185  165.9252 N.am    1  UNL1       -0.2515
     25 C         138.9401  141.5537  164.7774 C.2     1  UNL1        0.2740
     26 O         137.7462  141.3601  163.8902 O.2     1  UNL1       -0.2705
     27 C         139.8930  142.6824  164.5169 C.3     1  UNL1        0.2900
     28 O         141.0870  142.8760  165.4041 O.3     1  UNL1       -0.4643
     29 C         141.3279  141.9408  166.5519 C.ar    1  UNL1        0.1529
     30 C         142.5218  142.1343  167.4391 C.ar    1  UNL1        0.0391
     31 C         142.7628  141.1991  168.5868 C.ar    1  UNL1        0.0146
     32 C         141.8099  140.0703  168.8474 C.ar    1  UNL1        0.0591
     33 CL        142.0508  139.1351  169.9951 Cl      1  UNL1       -0.0822
     34 C         140.6159  139.8768  167.9601 C.ar    1  UNL1        0.0294
     35 C         140.3750  140.8120  166.8124 C.ar    1  UNL1        0.0890
@<TRIPOS>BOND
     1    10    11    2
     2    11    12    1
     3    12    13    1
     4    13    14    1
     5    14    15   ar
     6    15    16   ar
     7    16    17   ar
     8    17     9    1
     9     9     7    1
    10     7     1    1
    11     1     2    1
    12     2     3    1
    13     3     4    1
    14     4    22    1
    15    22    23    1
    16    23    24    1
    17    24    25   am
    18    25    26    2
    19    25    27    1
    20    27    28    1
    21    28    29    1
    22    29    30   ar
    23    30    31   ar
    24    31    32   ar
    25    32    33    1
    26    32    34   ar
    27    34    35   ar
    28     4     5    1
    29     5     6    1
    30    17    18   ar
    31    18    19   ar
    32    19    20    1
    33    20    11   am
    34    19    14   ar
    35     6     1    1
    36    35    24    1
    37    35    29   ar
    38     7     8    1
    39    20    21    1
@<TRIPOS>MOLECULE
*****
 35 39 0 0 0
SMALL
GASTEIGER

@<TRIPOS>ATOM
      1 C         143.7811  143.7121  162.3758 C.3     1  UNL1        0.0570
      2 C         143.4321  144.2428  163.7346 C.3     1  UNL1        0.0331
      3 C         142.0583  144.7845  163.9981 C.3     1  UNL1        0.0735
      4 N         141.0336  144.7955  162.9027 N.3     1  UNL1       -0.2711
      5 C         141.3827  144.2648  161.5438 C.3     1  UNL1        0.0735
      6 C         142.7565  143.7231  161.2804 C.3     1  UNL1        0.0331
      7 N         145.1549  143.1705  162.1123 N.3     1  UNL1       -0.2934
      8 H         145.4956  143.6300  161.2679 H       1  UNL1        0.1236
      9 C         145.3549  141.6971  161.9144 C.3     1  UNL1        0.1152
     10 O         138.9472  137.3546  162.8274 O.2     1  UNL1       -0.2707
     11 C         140.2820  137.8216  163.3275 C.2     1  UNL1        0.2718
     12 C         140.8158  137.3083  164.6319 C.3     1  UNL1        0.2898
     13 O         142.1506  137.7754  165.1319 O.3     1  UNL1       -0.4628
     14 C         142.9517  138.7558  164.3276 C.ar    1  UNL1        0.1708
     15 C         144.2865  139.2229  164.8276 C.ar    1  UNL1        0.0411
     16 C         145.0876  140.2033  164.0232 C.ar    1  UNL1        0.0193
     17 C         144.5538  140.7167  162.7187 C.ar    1  UNL1        0.0765
     18 N         143.2190  140.2496  162.2187 N.ar    1  UNL1       -0.2304
     19 C         142.4179  139.2691  163.0231 C.ar    1  UNL1        0.1682
     20 N         141.0831  138.8020  162.5231 N.am    1  UNL1       -0.2639
     21 H         140.7328  139.1390  161.6669 H       1  UNL1        0.1565
     22 C         139.6599  145.3371  163.1661 C.3     1  UNL1        0.0942
     23 C         138.7934  144.7060  164.2153 C.3     1  UNL1        0.1157
     24 N         138.6178  143.2166  164.2467 N.am    1  UNL1       -0.2515
     25 C         137.9065  142.5215  163.1239 C.2     1  UNL1        0.2740
     26 O         137.3707  143.3157  161.9697 O.2     1  UNL1       -0.2705
     27 C         137.7309  141.0321  163.1553 C.3     1  UNL1        0.2900
     28 O         138.2667  140.2379  164.3095 O.3     1  UNL1       -0.4643
     29 C         138.9780  140.9331  165.4324 C.ar    1  UNL1        0.1529
     30 C         139.5138  140.1389  166.5866 C.ar    1  UNL1        0.0391
     31 C         140.2251  140.8341  167.7094 C.ar    1  UNL1        0.0146
     32 C         140.4007  142.3234  167.6780 C.ar    1  UNL1        0.0591
     33 CL        141.1120  143.0186  168.8009 Cl      1  UNL1       -0.0822
     34 C         139.8649  143.1176  166.5238 C.ar    1  UNL1        0.0294
     35 C         139.1536  142.4225  165.4009 C.ar    1  UNL1        0.0890
@<TRIPOS>BOND
     1    10    11    2
     2    11    12    1
     3    12    13    1
     4    13    14    1
     5    14    15   ar
     6    15    16   ar
     7    16    17   ar
     8    17     9    1
     9     9     7    1
    10     7     1    1
    11     1     2    1
    12     2     3    1
    13     3     4    1
    14     4    22    1
    15    22    23    1
    16    23    24    1
    17    24    25   am
    18    25    26    2
    19    25    27    1
    20    27    28    1
    21    28    29    1
    22    29    30   ar
    23    30    31   ar
    24    31    32   ar
    25    32    33    1
    26    32    34   ar
    27    34    35   ar
    28     4     5    1
    29     5     6    1
    30    17    18   ar
    31    18    19   ar
    32    19    20    1
    33    20    11   am
    34    19    14   ar
    35     6     1    1
    36    35    24    1
    37    35    29   ar
    38     7     8    1
    39    20    21    1
@<TRIPOS>MOLECULE
*****
 35 39 0 0 0
SMALL
GASTEIGER

@<TRIPOS>ATOM
      1 C         142.6258  143.9190  164.1736 C.3     1  UNL1        0.0570
      2 C         142.0370  144.5470  162.9452 C.3     1  UNL1        0.0331
      3 C         140.5518  144.5346  162.7349 C.3     1  UNL1        0.0735
      4 N         139.6555  143.8941  163.7529 N.3     1  UNL1       -0.2711
      5 C         140.2443  143.2661  164.9813 C.3     1  UNL1        0.0735
      6 C         141.7294  143.2785  165.1916 C.3     1  UNL1        0.0331
      7 N         144.1109  143.9314  164.3839 N.3     1  UNL1       -0.2934
      8 H         144.5179  144.4121  163.5816 H       1  UNL1        0.1236
      9 C         144.8573  142.6395  164.5390 C.3     1  UNL1        0.1152
     10 O         143.3089  138.7276  157.9778 O.2     1  UNL1       -0.2707
     11 C         143.3324  138.7934  159.4762 C.2     1  UNL1        0.2718
     12 C         142.8634  137.6211  160.2859 C.3     1  UNL1        0.2898
     13 O         142.8869  137.6869  161.7843 O.3     1  UNL1       -0.4628
     14 C         143.3795  138.9250  162.4730 C.ar    1  UNL1        0.1708
     15 C         143.4030  138.9909  163.9713 C.ar    1  UNL1        0.0411
     16 C         143.8956  140.2290  164.6600 C.ar    1  UNL1        0.0193
     17 C         144.3647  141.4014  163.8503 C.ar    1  UNL1        0.0765
     18 N         144.3411  141.3356  162.3520 N.ar    1  UNL1       -0.2304
     19 C         143.8485  140.0974  161.6633 C.ar    1  UNL1        0.1682
     20 N         143.8250  140.0316  160.1649 N.am    1  UNL1       -0.2639
     21 H         144.1328  140.8010  159.6335 H       1  UNL1        0.1565
     22 C         138.1704  143.8817  163.5425 C.3     1  UNL1        0.0942
     23 C         137.4887  142.6276  163.0816 C.3     1  UNL1        0.1157
     24 N         138.2902  141.5250  162.4553 N.am    1  UNL1       -0.2515
     25 C         138.7675  141.6560  161.0393 C.2     1  UNL1        0.2740
     26 O         138.4433  142.8895  160.2496 O.2     1  UNL1       -0.2705
     27 C         139.5689  140.5536  160.4129 C.3     1  UNL1        0.2900
     28 O         139.8930  139.3201  161.2026 O.3     1  UNL1       -0.4643
     29 C         139.4158  139.1891  162.6186 C.ar    1  UNL1        0.1529
     30 C         139.7399  137.9557  163.4082 C.ar    1  UNL1        0.0391
     31 C         139.2626  137.8247  164.8242 C.ar    1  UNL1        0.0146
     32 C         138.4612  138.9271  165.4506 C.ar    1  UNL1        0.0591
     33 CL        137.9840  138.7961  166.8666 Cl      1  UNL1       -0.0822
     34 C         138.1371  140.1606  164.6609 C.ar    1  UNL1        0.0294
     35 C         138.6143  140.2916  163.2449 C.ar    1  UNL1        0.0890
@<TRIPOS>BOND
     1    10    11    2
     2    11    12    1
     3    12    13    1
     4    13    14    1
     5    14    15   ar
     6    15    16   ar
     7    16    17   ar
     8    17     9    1
     9     9     7    1
    10     7     1    1
    11     1     2    1
    12     2     3    1
    13     3     4    1
    14     4    22    1
    15    22    23    1
    16    23    24    1
    17    24    25   am
    18    25    26    2
    19    25    27    1
    20    27    28    1
    21    28    29    1
    22    29    30   ar
    23    30    31   ar
    24    31    32   ar
    25    32    33    1
    26    32    34   ar
    27    34    35   ar
    28     4     5    1
    29     5     6    1
    30    17    18   ar
    31    18    19   ar
    32    19    20    1
    33    20    11   am
    34    19    14   ar
    35     6     1    1
    36    35    24    1
    37    35    29   ar
    38     7     8    1
    39    20    21    1
@<TRIPOS>MOLECULE
*****
 35 39 0 0 0
SMALL
GASTEIGER

@<TRIPOS>ATOM
      1 C         139.5876  137.7633  162.5241 C.3     1  UNL1        0.0570
      2 C         139.3177  137.7684  163.9996 C.3     1  UNL1        0.0331
      3 C         140.4551  137.8927  164.9697 C.3     1  UNL1        0.0735
      4 N         141.8623  138.0119  164.4642 N.3     1  UNL1       -0.2711
      5 C         142.1322  138.0068  162.9887 C.3     1  UNL1        0.0735
      6 C         140.9949  137.8826  162.0186 C.3     1  UNL1        0.0331
      7 N         138.4503  137.6391  161.5541 N.3     1  UNL1       -0.2934
      8 H         138.8628  137.5727  160.6236 H       1  UNL1        0.1236
      9 C         137.4012  138.7091  161.4873 C.3     1  UNL1        0.1152
     10 O         138.4683  145.1813  165.6971 O.2     1  UNL1       -0.2707
     11 C         138.5081  144.4684  164.3779 C.2     1  UNL1        0.2718
     12 C         138.9434  145.1999  163.1429 C.3     1  UNL1        0.2898
     13 O         138.9832  144.4869  161.8237 O.3     1  UNL1       -0.4628
     14 C         138.5877  143.0425  161.7396 C.ar    1  UNL1        0.1708
     15 C         138.6275  142.3296  160.4205 C.ar    1  UNL1        0.0411
     16 C         138.2320  140.8851  160.3364 C.ar    1  UNL1        0.0193
     17 C         137.7967  140.1535  161.5714 C.ar    1  UNL1        0.0765
     18 N         137.7569  140.8665  162.8906 N.ar    1  UNL1       -0.2304
     19 C         138.1524  142.3110  162.9747 C.ar    1  UNL1        0.1682
     20 N         138.1126  143.0239  164.2938 N.am    1  UNL1       -0.2639
     21 H         137.8269  142.5438  165.1044 H       1  UNL1        0.1565
     22 C         142.9997  138.1361  165.4342 C.3     1  UNL1        0.0942
     23 C         143.6664  139.4636  165.6421 C.3     1  UNL1        0.1157
     24 N         142.8621  140.7274  165.5637 N.am    1  UNL1       -0.2515
     25 C         142.8976  141.5629  164.3185 C.2     1  UNL1        0.2740
     26 O         143.7375  141.1348  163.1517 O.2     1  UNL1       -0.2705
     27 C         142.0933  142.8266  164.2401 C.3     1  UNL1        0.2900
     28 O         141.2535  143.2548  165.4069 O.3     1  UNL1       -0.4643
     29 C         141.2179  142.4192  166.6521 C.ar    1  UNL1        0.1529
     30 C         140.3782  142.8474  167.8189 C.ar    1  UNL1        0.0391
     31 C         140.3426  142.0118  169.0641 C.ar    1  UNL1        0.0146
     32 C         141.1469  140.7481  169.1425 C.ar    1  UNL1        0.0591
     33 CL        141.1113  139.9125  170.3878 Cl      1  UNL1       -0.0822
     34 C         141.9867  140.3199  167.9757 C.ar    1  UNL1        0.0294
     35 C         142.0223  141.1555  166.7305 C.ar    1  UNL1        0.0890
@<TRIPOS>BOND
     1    10    11    2
     2    11    12    1
     3    12    13    1
     4    13    14    1
     5    14    15   ar
     6    15    16   ar
     7    16    17   ar
     8    17     9    1
     9     9     7    1
    10     7     1    1
    11     1     2    1
    12     2     3    1
    13     3     4    1
    14     4    22    1
    15    22    23    1
    16    23    24    1
    17    24    25   am
    18    25    26    2
    19    25    27    1
    20    27    28    1
    21    28    29    1
    22    29    30   ar
    23    30    31   ar
    24    31    32   ar
    25    32    33    1
    26    32    34   ar
    27    34    35   ar
    28     4     5    1
    29     5     6    1
    30    17    18   ar
    31    18    19   ar
    32    19    20    1
    33    20    11   am
    34    19    14   ar
    35     6     1    1
    36    35    24    1
    37    35    29   ar
    38     7     8    1
    39    20    21    1
@<TRIPOS>MOLECULE
*****
 35 39 0 0 0
SMALL
GASTEIGER

@<TRIPOS>ATOM
      1 C         141.3284  137.8562  162.9002 C.3     1  UNL1        0.0570
      2 C         141.7961  137.9198  164.3240 C.3     1  UNL1        0.0331
      3 C         143.0316  138.6953  164.6736 C.3     1  UNL1        0.0735
      4 N         143.7994  139.4071  163.5994 N.3     1  UNL1       -0.2711
      5 C         143.3316  139.3434  162.1756 C.3     1  UNL1        0.0735
      6 C         142.0961  138.5680  161.8260 C.3     1  UNL1        0.0331
      7 N         140.0929  137.0807  162.5506 N.3     1  UNL1       -0.2934
      8 H         140.1494  136.8704  161.5541 H       1  UNL1        0.1236
      9 C         138.7386  137.6794  162.7907 C.3     1  UNL1        0.1152
     10 O         137.6157  144.8822  165.5490 O.2     1  UNL1       -0.2707
     11 C         137.7630  143.9442  164.3878 C.2     1  UNL1        0.2718
     12 C         137.6835  144.4690  162.9849 C.3     1  UNL1        0.2898
     13 O         137.8309  143.5309  161.8237 O.3     1  UNL1       -0.4628
     14 C         138.0578  142.0681  162.0654 C.ar    1  UNL1        0.1708
     15 C         138.2052  141.1300  160.9043 C.ar    1  UNL1        0.0411
     16 C         138.4321  139.6671  161.1460 C.ar    1  UNL1        0.0193
     17 C         138.5117  139.1422  162.5490 C.ar    1  UNL1        0.0765
     18 N         138.3643  140.0803  163.7102 N.ar    1  UNL1       -0.2304
     19 C         138.1373  141.5432  163.4684 C.ar    1  UNL1        0.1682
     20 N         137.9900  142.4813  164.6295 N.am    1  UNL1       -0.2639
     21 H         138.0422  142.1368  165.5503 H       1  UNL1        0.1565
     22 C         145.0348  140.1825  163.9490 C.3     1  UNL1        0.0942
     23 C         144.9286  141.6275  164.3370 C.3     1  UNL1        0.1157
     24 N         143.5930  142.3104  164.3276 N.am    1  UNL1       -0.2515
     25 C         143.1030  142.9822  163.0791 C.2     1  UNL1        0.2740
     26 O         143.9486  142.9710  161.8401 O.2     1  UNL1       -0.2705
     27 C         141.7675  143.6651  163.0696 C.3     1  UNL1        0.2900
     28 O         140.9220  143.6762  164.3086 O.3     1  UNL1       -0.4643
     29 C         141.4120  143.0045  165.5570 C.ar    1  UNL1        0.1529
     30 C         140.5665  143.0156  166.7960 C.ar    1  UNL1        0.0391
     31 C         141.0565  142.3439  168.0444 C.ar    1  UNL1        0.0146
     32 C         142.3920  141.6610  168.0540 C.ar    1  UNL1        0.0591
     33 CL        142.8820  140.9893  169.3024 Cl      1  UNL1       -0.0822
     34 C         143.2376  141.6498  166.8150 C.ar    1  UNL1        0.0294
     35 C         142.7476  142.3216  165.5665 C.ar    1  UNL1        0.0890
@<TRIPOS>BOND
     1    10    11    2
     2    11    12    1
     3    12    13    1
     4    13    14    1
     5    14    15   ar
     6    15    16   ar
     7    16    17   ar
     8    17     9    1
     9     9     7    1
    10     7     1    1
    11     1     2    1
    12     2     3    1
    13     3     4    1
    14     4    22    1
    15    22    23    1
    16    23    24    1
    17    24    25   am
    18    25    26    2
    19    25    27    1
    20    27    28    1
    21    28    29    1
    22    29    30   ar
    23    30    31   ar
    24    31    32   ar
    25    32    33    1
    26    32    34   ar
    27    34    35   ar
    28     4     5    1
    29     5     6    1
    30    17    18   ar
    31    18    19   ar
    32    19    20    1
    33    20    11   am
    34    19    14   ar
    35     6     1    1
    36    35    24    1
    37    35    29   ar
    38     7     8    1
    39    20    21    1
