@<TRIPOS>MOLECULE
*****
 38 42 0 0 0
SMALL
GASTEIGER

@<TRIPOS>ATOM
      1 N         140.9696  146.6205  153.5084 N.am    1  UNL1       -0.2888
      2 C         140.3821  146.8965  154.8607 C.2     1  UNL1        0.3040
      3 O         139.2942  147.9181  155.0114 O.2     1  UNL1       -0.2526
      4 N         140.8825  146.1509  156.0622 N.am    1  UNL1       -0.2637
      5 C         141.9592  145.1066  156.0664 C.3     1  UNL1        0.0955
      6 C         142.1362  144.6290  157.4773 C.3     1  UNL1        0.0317
      7 C         143.0532  143.6087  158.0840 C.3     1  UNL1        0.0025
      8 C         144.0205  142.8595  157.2162 C.3     1  UNL1        0.0001
      9 C         143.0030  143.3375  159.5585 C.3     1  UNL1        0.0042
     10 C         143.9200  142.3173  160.1651 C.3     1  UNL1        0.0003
     11 C         142.0357  144.0867  160.4262 C.3     1  UNL1        0.0261
     12 C         141.1186  145.1071  159.8195 C.3     1  UNL1        0.0559
     13 C         141.4260  144.8980  159.4101 C.3     1  UNL1        0.1697
     14 C         139.6845  146.0527  161.8674 C.3     1  UNL1        0.0473
     15 O         140.9927  145.3845  159.1033 O.3     1  UNL1       -0.4522
     16 C         141.4512  145.0335  158.6729 C.2     1  UNL1        0.3176
     17 O         139.8614  147.0071  156.6771 O.2     1  UNL1       -0.2501
     18 C         141.1689  145.3782  158.3451 C.3     1  UNL1        0.1130
     19 C         140.3941  146.3188  157.4705 C.3     1  UNL1        0.1056
     20 H         141.6836  145.9500  153.4095 H       1  UNL1        0.1510
     21 C         140.9534  148.7593  152.0334 C.3     1  UNL1        0.0230
     22 C         140.4692  147.3661  152.3069 C.3     1  UNL1        0.0910
     23 C         141.9854  143.8157  161.9006 C.2     1  UNL1       -0.0248
     24 C         141.1482  142.6882  162.4277 C.2     1  UNL1        0.0145
     25 C         141.0979  142.4171  163.9022 C.ar    1  UNL1        0.0810
     26 C         140.2042  143.2364  164.7854 C.ar    1  UNL1        0.0191
     27 C         140.1539  142.9652  166.2599 C.ar    1  UNL1        0.0031
     28 C         140.9972  141.8748  166.8511 C.ar    1  UNL1        0.0198
     29 C         141.8910  141.0554  165.9679 C.ar    1  UNL1        0.0988
     30 N         141.9412  141.3266  164.4935 N.ar    1  UNL1       -0.2438
     31 C         140.9469  141.6036  168.3255 C.ar    1  UNL1        0.0111
     32 C         141.8239  142.3814  169.2614 C.ar    1  UNL1        0.0007
     33 C         141.7736  142.1103  170.7359 C.ar    1  UNL1        0.0000
     34 C         140.8464  141.0613  171.2744 C.ar    1  UNL1        0.0007
     35 C         139.9694  140.2835  170.3384 C.ar    1  UNL1        0.0103
     36 C         140.0197  140.5547  168.8640 C.ar    1  UNL1        0.0685
     37 C         139.1428  139.7769  167.9281 C.1     1  UNL1        0.1004
     38 N         138.2657  138.9991  166.9921 N.1     1  UNL1       -0.1908
@<TRIPOS>BOND
     1    21    22    1
     2    22     1    1
     3     1     2   am
     4     2     3    2
     5     2     4   am
     6     4     5    1
     7     6     5    1
     8     6     7    1
     9     7     8    1
    10     7     9    1
    11     9    10    1
    12     9    11    1
    13    11    23    1
    14    23    24    2
    15    24    25    1
    16    25    26   ar
    17    26    27   ar
    18    27    28   ar
    19    28    31    1
    20    31    32   ar
    21    32    33   ar
    22    33    34   ar
    23    34    35   ar
    24    35    36   ar
    25    36    37    1
    26    37    38    3
    27    28    29   ar
    28    29    30   ar
    29    11    12    1
    30    12    13    1
    31    13    14    1
    32    13    15    1
    33    15    16    1
    34    16    17    2
    35    16    18    1
    36    18    19    1
    37    19     4    1
    38    18     6    1
    39    30    25   ar
    40    18    12    1
    41    36    31   ar
    42     1    20    1
@<TRIPOS>MOLECULE
*****
 38 42 0 0 0
SMALL
GASTEIGER

@<TRIPOS>ATOM
      1 N         139.2821  139.9085  168.7199 N.am    1  UNL1       -0.2888
      2 C         140.1812  140.8852  168.0218 C.2     1  UNL1        0.3040
      3 O         140.4498  142.2277  168.6346 O.2     1  UNL1       -0.2526
      4 N         140.8118  140.5195  166.7108 N.am    1  UNL1       -0.2637
      5 C         140.6371  139.2212  165.9801 C.3     1  UNL1        0.0955
      6 C         141.4451  139.2872  164.7181 C.3     1  UNL1        0.0317
      7 C         141.6541  138.3009  163.6075 C.3     1  UNL1        0.0025
      8 C         140.9799  136.9619  163.6567 C.3     1  UNL1        0.0001
      9 C         142.5374  138.6537  162.4475 C.3     1  UNL1        0.0042
     10 C         142.7464  137.6674  161.3368 C.3     1  UNL1        0.0003
     11 C         143.2116  139.9927  162.3982 C.3     1  UNL1        0.0261
     12 C         143.0026  140.9790  163.5089 C.3     1  UNL1        0.0559
     13 C         142.7090  140.5270  163.6328 C.3     1  UNL1        0.1697
     14 C         144.4539  143.1151  162.8195 C.3     1  UNL1        0.0473
     15 O         142.5983  140.9890  164.1739 O.3     1  UNL1       -0.4522
     16 C         142.2674  140.3506  164.2128 C.2     1  UNL1        0.3176
     17 O         141.3448  141.8733  166.9027 O.2     1  UNL1       -0.2501
     18 C         142.1193  140.6262  164.6688 C.3     1  UNL1        0.1130
     19 C         141.7279  141.3878  165.9004 C.3     1  UNL1        0.1056
     20 H         139.1058  139.0273  168.3177 H       1  UNL1        0.1510
     21 C         137.4366  139.5365  170.5105 C.3     1  UNL1        0.0230
     22 C         138.6515  140.2742  170.0309 C.3     1  UNL1        0.0910
     23 C         144.0948  140.3455  161.2383 C.2     1  UNL1       -0.0248
     24 C         143.4884  140.8202  159.9511 C.2     1  UNL1        0.0145
     25 C         144.3716  141.1730  158.7911 C.ar    1  UNL1        0.0810
     26 C         145.1469  142.4570  158.8021 C.ar    1  UNL1        0.0191
     27 C         146.0301  142.8099  157.6421 C.ar    1  UNL1        0.0031
     28 C         146.1380  141.8786  156.4711 C.ar    1  UNL1        0.0198
     29 C         145.3626  140.5946  156.4602 C.ar    1  UNL1        0.0988
     30 N         144.4794  140.2418  157.6201 N.ar    1  UNL1       -0.2438
     31 C         147.0211  142.2314  155.3112 C.ar    1  UNL1        0.0111
     32 C         148.4528  141.7844  155.2955 C.ar    1  UNL1        0.0007
     33 C         149.3361  142.1371  154.1355 C.ar    1  UNL1        0.0000
     34 C         148.7875  142.9369  152.9912 C.ar    1  UNL1        0.0007
     35 C         147.3557  143.3840  153.0069 C.ar    1  UNL1        0.0103
     36 C         146.4725  143.0312  154.1669 C.ar    1  UNL1        0.0685
     37 C         145.0408  143.4782  154.1826 C.1     1  UNL1        0.1004
     38 N         143.6090  143.9253  154.1983 N.1     1  UNL1       -0.1908
@<TRIPOS>BOND
     1    21    22    1
     2    22     1    1
     3     1     2   am
     4     2     3    2
     5     2     4   am
     6     4     5    1
     7     6     5    1
     8     6     7    1
     9     7     8    1
    10     7     9    1
    11     9    10    1
    12     9    11    1
    13    11    23    1
    14    23    24    2
    15    24    25    1
    16    25    26   ar
    17    26    27   ar
    18    27    28   ar
    19    28    31    1
    20    31    32   ar
    21    32    33   ar
    22    33    34   ar
    23    34    35   ar
    24    35    36   ar
    25    36    37    1
    26    37    38    3
    27    28    29   ar
    28    29    30   ar
    29    11    12    1
    30    12    13    1
    31    13    14    1
    32    13    15    1
    33    15    16    1
    34    16    17    2
    35    16    18    1
    36    18    19    1
    37    19     4    1
    38    18     6    1
    39    30    25   ar
    40    18    12    1
    41    36    31   ar
    42     1    20    1
@<TRIPOS>MOLECULE
*****
 38 42 0 0 0
SMALL
GASTEIGER

@<TRIPOS>ATOM
      1 N         135.7637  142.1847  153.2668 N.am    1  UNL1       -0.2888
      2 C         135.8056  141.3328  154.5007 C.2     1  UNL1        0.3040
      3 O         134.9339  140.1164  154.6021 O.2     1  UNL1       -0.2526
      4 N         136.7192  141.6973  155.6331 N.am    1  UNL1       -0.2637
      5 C         137.6439  142.8777  155.6750 C.3     1  UNL1        0.0955
      6 C         138.3648  142.8554  156.9903 C.3     1  UNL1        0.0317
      7 C         139.3955  143.7682  157.5855 C.3     1  UNL1        0.0025
      8 C         139.8747  144.9623  156.8145 C.3     1  UNL1        0.0001
      9 C         139.9472  143.4868  158.9517 C.3     1  UNL1        0.0042
     10 C         140.9780  144.3995  159.5469 C.3     1  UNL1        0.0003
     11 C         139.4681  142.2926  159.7227 C.3     1  UNL1        0.0261
     12 C         138.4373  141.3798  159.1274 C.3     1  UNL1        0.0559
     13 C         138.5356  141.7798  158.7584 C.3     1  UNL1        0.1697
     14 C         138.0339  139.4925  160.9768 C.3     1  UNL1        0.0473
     15 O         138.0404  141.3516  158.4585 O.3     1  UNL1       -0.4522
     16 C         138.2598  141.9205  158.0753 C.2     1  UNL1        0.3176
     17 O         136.0920  140.4830  156.1675 O.2     1  UNL1       -0.2501
     18 C         137.8856  141.6612  157.7613 C.3     1  UNL1        0.1130
     19 C         136.8686  140.9455  156.9225 C.3     1  UNL1        0.1056
     20 H         136.3359  142.9831  153.2002 H       1  UNL1        0.1510
     21 C         133.5295  142.5153  151.9826 C.3     1  UNL1        0.0230
     22 C         134.8501  141.8202  152.1344 C.3     1  UNL1        0.0910
     23 C         140.0197  142.0112  161.0889 C.2     1  UNL1       -0.0248
     24 C         139.4595  142.7223  162.2849 C.2     1  UNL1        0.0145
     25 C         140.0111  142.4409  163.6512 C.ar    1  UNL1        0.0810
     26 C         139.5846  143.2793  164.8195 C.ar    1  UNL1        0.0191
     27 C         140.1362  142.9979  166.1858 C.ar    1  UNL1        0.0031
     28 C         141.1144  141.8781  166.3836 C.ar    1  UNL1        0.0198
     29 C         141.5409  141.0396  165.2152 C.ar    1  UNL1        0.0988
     30 N         140.9893  141.3210  163.8490 N.ar    1  UNL1       -0.2438
     31 C         141.6660  141.5967  167.7498 C.ar    1  UNL1        0.0111
     32 C         142.9162  142.2857  168.2103 C.ar    1  UNL1        0.0007
     33 C         143.4679  142.0043  169.5766 C.ar    1  UNL1        0.0000
     34 C         142.7693  141.0339  170.4822 C.ar    1  UNL1        0.0007
     35 C         141.5190  140.3449  170.0216 C.ar    1  UNL1        0.0103
     36 C         140.9674  140.6263  168.6555 C.ar    1  UNL1        0.0685
     37 C         139.7172  139.9372  168.1949 C.1     1  UNL1        0.1004
     38 N         138.4669  139.2481  167.7344 N.1     1  UNL1       -0.1908
@<TRIPOS>BOND
     1    21    22    1
     2    22     1    1
     3     1     2   am
     4     2     3    2
     5     2     4   am
     6     4     5    1
     7     6     5    1
     8     6     7    1
     9     7     8    1
    10     7     9    1
    11     9    10    1
    12     9    11    1
    13    11    23    1
    14    23    24    2
    15    24    25    1
    16    25    26   ar
    17    26    27   ar
    18    27    28   ar
    19    28    31    1
    20    31    32   ar
    21    32    33   ar
    22    33    34   ar
    23    34    35   ar
    24    35    36   ar
    25    36    37    1
    26    37    38    3
    27    28    29   ar
    28    29    30   ar
    29    11    12    1
    30    12    13    1
    31    13    14    1
    32    13    15    1
    33    15    16    1
    34    16    17    2
    35    16    18    1
    36    18    19    1
    37    19     4    1
    38    18     6    1
    39    30    25   ar
    40    18    12    1
    41    36    31   ar
    42     1    20    1
@<TRIPOS>MOLECULE
*****
 38 42 0 0 0
SMALL
GASTEIGER

@<TRIPOS>ATOM
      1 N         139.9751  140.3178  169.0282 N.am    1  UNL1       -0.2888
      2 C         140.1858  141.6081  168.2930 C.2     1  UNL1        0.3040
      3 O         140.6074  142.8376  169.0417 O.2     1  UNL1       -0.2526
      4 N         139.9747  141.6690  166.8092 N.am    1  UNL1       -0.2637
      5 C         139.5554  140.5278  165.9307 C.3     1  UNL1        0.0955
      6 C         139.4675  141.0352  164.5219 C.3     1  UNL1        0.0317
      7 C         139.1022  140.3605  163.2330 C.3     1  UNL1        0.0025
      8 C         138.7371  138.9056  163.2253 C.3     1  UNL1        0.0001
      9 C         139.1020  141.1407  161.9518 C.3     1  UNL1        0.0042
     10 C         138.7367  140.4659  160.6629 C.3     1  UNL1        0.0003
     11 C         139.4670  142.5955  161.9595 C.3     1  UNL1        0.0261
     12 C         139.8323  143.2703  163.2485 C.3     1  UNL1        0.0559
     13 C         139.7181  142.7421  163.3659 C.3     1  UNL1        0.1697
     14 C         140.3634  145.8026  162.5774 C.3     1  UNL1        0.0473
     15 O         139.8910  143.0509  163.9930 O.3     1  UNL1       -0.4522
     16 C         139.7182  142.3520  164.0065 C.2     1  UNL1        0.3176
     17 O         140.3641  143.0563  167.0874 O.2     1  UNL1       -0.2501
     18 C         139.8325  142.4901  164.5297 C.3     1  UNL1        0.1130
     19 C         140.1460  142.8818  165.9433 C.3     1  UNL1        0.1056
     20 H         139.6984  139.5108  168.5369 H       1  UNL1        0.1510
     21 C         141.5617  140.4389  171.0821 C.3     1  UNL1        0.0230
     22 C         140.1861  140.2569  170.5121 C.3     1  UNL1        0.0910
     23 C         139.4668  143.3757  160.6784 C.2     1  UNL1       -0.0248
     24 C         140.7135  143.4543  159.8481 C.2     1  UNL1        0.0145
     25 C         140.7133  144.2345  158.5669 C.ar    1  UNL1        0.0810
     26 C         141.8305  145.1908  158.2709 C.ar    1  UNL1        0.0191
     27 C         141.8303  145.9709  156.9897 C.ar    1  UNL1        0.0031
     28 C         140.7130  145.7948  156.0045 C.ar    1  UNL1        0.0198
     29 C         139.5958  144.8385  156.3005 C.ar    1  UNL1        0.0988
     30 N         139.5960  144.0584  157.5817 N.ar    1  UNL1       -0.2438
     31 C         140.7128  146.5749  154.7234 C.ar    1  UNL1        0.0111
     32 C         141.4766  146.0676  153.5363 C.ar    1  UNL1        0.0007
     33 C         141.4764  146.8478  152.2551 C.ar    1  UNL1        0.0000
     34 C         140.7124  148.1352  152.1610 C.ar    1  UNL1        0.0007
     35 C         139.9486  148.6425  153.3482 C.ar    1  UNL1        0.0103
     36 C         139.9488  147.8623  154.6293 C.ar    1  UNL1        0.0685
     37 C         139.1849  148.3696  155.8164 C.1     1  UNL1        0.1004
     38 N         138.4211  148.8769  157.0035 N.1     1  UNL1       -0.1908
@<TRIPOS>BOND
     1    21    22    1
     2    22     1    1
     3     1     2   am
     4     2     3    2
     5     2     4   am
     6     4     5    1
     7     6     5    1
     8     6     7    1
     9     7     8    1
    10     7     9    1
    11     9    10    1
    12     9    11    1
    13    11    23    1
    14    23    24    2
    15    24    25    1
    16    25    26   ar
    17    26    27   ar
    18    27    28   ar
    19    28    31    1
    20    31    32   ar
    21    32    33   ar
    22    33    34   ar
    23    34    35   ar
    24    35    36   ar
    25    36    37    1
    26    37    38    3
    27    28    29   ar
    28    29    30   ar
    29    11    12    1
    30    12    13    1
    31    13    14    1
    32    13    15    1
    33    15    16    1
    34    16    17    2
    35    16    18    1
    36    18    19    1
    37    19     4    1
    38    18     6    1
    39    30    25   ar
    40    18    12    1
    41    36    31   ar
    42     1    20    1
@<TRIPOS>MOLECULE
*****
 38 42 0 0 0
SMALL
GASTEIGER

@<TRIPOS>ATOM
      1 N         140.1135  143.4818  168.4396 N.am    1  UNL1       -0.2888
      2 C         140.5988  142.1895  167.8529 C.2     1  UNL1        0.3040
      3 O         141.3716  141.2239  168.7017 O.2     1  UNL1       -0.2526
      4 N         140.3114  141.8627  166.4174 N.am    1  UNL1       -0.2637
      5 C         139.5548  142.7253  165.4513 C.3     1  UNL1        0.0955
      6 C         139.5058  142.0117  164.1328 C.3     1  UNL1        0.0317
      7 C         138.8937  142.3806  162.8140 C.3     1  UNL1        0.0025
      8 C         138.1673  143.6843  162.6627 C.3     1  UNL1        0.0001
      9 C         139.0079  141.4458  161.6464 C.3     1  UNL1        0.0042
     10 C         138.3958  141.8147  160.3277 C.3     1  UNL1        0.0003
     11 C         139.7343  140.1421  161.7977 C.3     1  UNL1        0.0261
     12 C         140.3464  139.7733  163.1166 C.3     1  UNL1        0.0559
     13 C         140.1084  140.2686  163.1784 C.3     1  UNL1        0.1697
     14 C         141.4641  137.3786  162.7148 C.3     1  UNL1        0.0473
     15 O         140.3966  140.1066  163.8181 O.3     1  UNL1       -0.4522
     16 C         140.0513  140.7360  163.7622 C.2     1  UNL1        0.3176
     17 O         141.0620  140.6693  166.8248 O.2     1  UNL1       -0.2501
     18 C         140.2322  140.7081  164.2841 C.3     1  UNL1        0.1130
     19 C         140.7300  140.6160  165.6960 C.3     1  UNL1        0.1056
     20 H         139.6063  144.1156  167.8826 H       1  UNL1        0.1510
     21 C         139.6175  143.1427  170.9673 C.3     1  UNL1        0.0230
     22 C         140.4010  143.8085  169.8751 C.3     1  UNL1        0.0910
     23 C         139.8485  139.2074  160.6302 C.2     1  UNL1       -0.0248
     24 C         140.9700  139.3687  159.6473 C.2     1  UNL1        0.0145
     25 C         141.0842  138.4339  158.4797 C.ar    1  UNL1        0.0810
     26 C         139.8807  138.1391  157.6344 C.ar    1  UNL1        0.0191
     27 C         139.9950  137.2043  156.4668 C.ar    1  UNL1        0.0031
     28 C         141.3128  136.5643  156.1446 C.ar    1  UNL1        0.0198
     29 C         142.5164  136.8591  156.9901 C.ar    1  UNL1        0.0988
     30 N         142.4021  137.7939  158.1575 N.ar    1  UNL1       -0.2438
     31 C         141.4272  135.6295  154.9771 C.ar    1  UNL1        0.0111
     32 C         141.3786  134.1464  155.1963 C.ar    1  UNL1        0.0007
     33 C         141.4929  133.2116  154.0288 C.ar    1  UNL1        0.0000
     34 C         141.6558  133.7599  152.6421 C.ar    1  UNL1        0.0007
     35 C         141.7044  135.2430  152.4230 C.ar    1  UNL1        0.0103
     36 C         141.5901  136.1778  153.5905 C.ar    1  UNL1        0.0685
     37 C         141.6387  137.6609  153.3713 C.1     1  UNL1        0.1004
     38 N         141.6872  139.1440  153.1521 N.1     1  UNL1       -0.1908
@<TRIPOS>BOND
     1    21    22    1
     2    22     1    1
     3     1     2   am
     4     2     3    2
     5     2     4   am
     6     4     5    1
     7     6     5    1
     8     6     7    1
     9     7     8    1
    10     7     9    1
    11     9    10    1
    12     9    11    1
    13    11    23    1
    14    23    24    2
    15    24    25    1
    16    25    26   ar
    17    26    27   ar
    18    27    28   ar
    19    28    31    1
    20    31    32   ar
    21    32    33   ar
    22    33    34   ar
    23    34    35   ar
    24    35    36   ar
    25    36    37    1
    26    37    38    3
    27    28    29   ar
    28    29    30   ar
    29    11    12    1
    30    12    13    1
    31    13    14    1
    32    13    15    1
    33    15    16    1
    34    16    17    2
    35    16    18    1
    36    18    19    1
    37    19     4    1
    38    18     6    1
    39    30    25   ar
    40    18    12    1
    41    36    31   ar
    42     1    20    1
@<TRIPOS>MOLECULE
*****
 38 42 0 0 0
SMALL
GASTEIGER

@<TRIPOS>ATOM
      1 N         140.3654  142.5219  169.0659 N.am    1  UNL1       -0.2888
      2 C         139.9748  141.3396  168.2295 C.2     1  UNL1        0.3040
      3 O         139.3149  140.1539  168.8687 O.2     1  UNL1       -0.2526
      4 N         140.2442  141.3430  166.7539 N.am    1  UNL1       -0.2637
      5 C         140.8932  142.4510  165.9786 C.3     1  UNL1        0.0955
      6 C         140.9619  142.0317  164.5400 C.3     1  UNL1        0.0317
      7 C         141.4984  142.7182  163.3190 C.3     1  UNL1        0.0025
      8 C         142.1049  144.0854  163.4329 C.3     1  UNL1        0.0001
      9 C         141.4284  142.0376  161.9841 C.3     1  UNL1        0.0042
     10 C         141.9649  142.7241  160.7632 C.3     1  UNL1        0.0003
     11 C         140.8218  140.6704  161.8703 C.3     1  UNL1        0.0261
     12 C         140.2853  139.9839  163.0914 C.3     1  UNL1        0.0559
     13 C         140.4816  140.4753  163.2518 C.3     1  UNL1        0.1697
     14 C         139.3655  137.6322  162.2148 C.3     1  UNL1        0.0473
     15 O         140.2287  140.1596  163.8475 O.3     1  UNL1       -0.4522
     16 C         140.5166  140.8157  163.9192 C.2     1  UNL1        0.3176
     17 O         139.6120  140.0282  166.9137 O.2     1  UNL1       -0.2501
     18 C         140.3553  140.6646  164.4262 C.3     1  UNL1        0.1130
     19 C         139.9118  140.2389  165.7944 C.3     1  UNL1        0.1056
     20 H         140.7986  143.3001  168.6463 H       1  UNL1        0.1510
     21 C         140.9986  141.7573  171.4669 C.3     1  UNL1        0.0230
     22 C         140.0961  142.5185  170.5415 C.3     1  UNL1        0.0910
     23 C         140.7518  139.9897  160.5355 C.2     1  UNL1       -0.0248
     24 C         141.8534  139.0670  160.1055 C.2     1  UNL1        0.0145
     25 C         141.7834  138.3863  158.7706 C.ar    1  UNL1        0.0810
     26 C         140.4509  138.0898  158.1489 C.ar    1  UNL1        0.0191
     27 C         140.3809  137.4091  156.8140 C.ar    1  UNL1        0.0031
     28 C         141.6434  137.0249  156.1010 C.ar    1  UNL1        0.0198
     29 C         142.9759  137.3214  156.7228 C.ar    1  UNL1        0.0988
     30 N         143.0459  138.0021  158.0576 N.ar    1  UNL1       -0.2438
     31 C         141.5735  136.3442  154.7662 C.ar    1  UNL1        0.0111
     32 C         141.2080  137.1299  153.5419 C.ar    1  UNL1        0.0007
     33 C         141.1380  136.4492  152.2070 C.ar    1  UNL1        0.0000
     34 C         141.4336  134.9828  152.0965 C.ar    1  UNL1        0.0007
     35 C         141.7991  134.1971  153.3209 C.ar    1  UNL1        0.0103
     36 C         141.8691  134.8777  154.6557 C.ar    1  UNL1        0.0685
     37 C         142.2346  134.0920  155.8800 C.1     1  UNL1        0.1004
     38 N         142.6002  133.3063  157.1043 N.1     1  UNL1       -0.1908
@<TRIPOS>BOND
     1    21    22    1
     2    22     1    1
     3     1     2   am
     4     2     3    2
     5     2     4   am
     6     4     5    1
     7     6     5    1
     8     6     7    1
     9     7     8    1
    10     7     9    1
    11     9    10    1
    12     9    11    1
    13    11    23    1
    14    23    24    2
    15    24    25    1
    16    25    26   ar
    17    26    27   ar
    18    27    28   ar
    19    28    31    1
    20    31    32   ar
    21    32    33   ar
    22    33    34   ar
    23    34    35   ar
    24    35    36   ar
    25    36    37    1
    26    37    38    3
    27    28    29   ar
    28    29    30   ar
    29    11    12    1
    30    12    13    1
    31    13    14    1
    32    13    15    1
    33    15    16    1
    34    16    17    2
    35    16    18    1
    36    18    19    1
    37    19     4    1
    38    18     6    1
    39    30    25   ar
    40    18    12    1
    41    36    31   ar
    42     1    20    1
@<TRIPOS>MOLECULE
*****
 38 42 0 0 0
SMALL
GASTEIGER

@<TRIPOS>ATOM
      1 N         141.7926  140.1714  168.6412 N.am    1  UNL1       -0.2888
      2 C         141.1963  141.3402  167.9144 C.2     1  UNL1        0.3040
      3 O         140.2273  142.2448  168.6162 O.2     1  UNL1       -0.2526
      4 N         141.5692  141.6046  166.4857 N.am    1  UNL1       -0.2637
      5 C         142.5196  140.7915  165.6576 C.3     1  UNL1        0.0955
      6 C         142.5949  141.4128  164.2944 C.3     1  UNL1        0.0317
      7 C         143.3697  141.0432  163.0643 C.3     1  UNL1        0.0025
      8 C         144.2735  139.8461  163.0787 C.3     1  UNL1        0.0001
      9 C         143.2408  141.8707  161.8198 C.3     1  UNL1        0.0042
     10 C         144.0156  141.5010  160.5898 C.3     1  UNL1        0.0003
     11 C         142.3370  143.0678  161.8054 C.3     1  UNL1        0.0261
     12 C         141.5622  143.4374  163.0356 C.3     1  UNL1        0.0559
     13 C         141.8571  142.9854  163.1565 C.3     1  UNL1        0.1697
     14 C         140.1786  145.6198  162.3518 C.3     1  UNL1        0.0473
     15 O         141.4921  143.1493  163.7552 O.3     1  UNL1       -0.4522
     16 C         141.9215  142.5717  163.7787 C.2     1  UNL1        0.3176
     17 O         140.6325  142.7070  166.7326 O.2     1  UNL1       -0.2501
     18 C         141.6912  142.6099  164.2800 C.3     1  UNL1        0.1130
     19 C         141.0573  142.7284  165.6343 C.3     1  UNL1        0.1056
     20 H         142.4286  139.5777  168.1805 H       1  UNL1        0.1510
     21 C         142.0964  140.6641  171.1740 C.3     1  UNL1        0.0230
     22 C         141.4197  139.9071  170.0698 C.3     1  UNL1        0.0910
     23 C         142.2081  143.8952  160.5610 C.2     1  UNL1       -0.0248
     24 C         141.1705  143.5492  159.5345 C.2     1  UNL1        0.0145
     25 C         141.0415  144.3767  158.2900 C.ar    1  UNL1        0.0810
     26 C         142.1266  145.3422  157.9155 C.ar    1  UNL1        0.0191
     27 C         141.9976  146.1697  156.6710 C.ar    1  UNL1        0.0031
     28 C         140.7834  146.0316  155.8011 C.ar    1  UNL1        0.0198
     29 C         139.6983  145.0660  156.1757 C.ar    1  UNL1        0.0988
     30 N         139.8273  144.2386  157.4201 N.ar    1  UNL1       -0.2438
     31 C         140.6544  146.8590  154.5566 C.ar    1  UNL1        0.0111
     32 C         141.3540  146.4362  153.2990 C.ar    1  UNL1        0.0007
     33 C         141.2250  147.2636  152.0545 C.ar    1  UNL1        0.0000
     34 C         140.3963  148.5138  152.0676 C.ar    1  UNL1        0.0007
     35 C         139.6967  148.9367  153.3254 C.ar    1  UNL1        0.0103
     36 C         139.8257  148.1093  154.5698 C.ar    1  UNL1        0.0685
     37 C         139.1261  148.5321  155.8274 C.1     1  UNL1        0.1004
     38 N         138.4264  148.9549  157.0851 N.1     1  UNL1       -0.1908
@<TRIPOS>BOND
     1    21    22    1
     2    22     1    1
     3     1     2   am
     4     2     3    2
     5     2     4   am
     6     4     5    1
     7     6     5    1
     8     6     7    1
     9     7     8    1
    10     7     9    1
    11     9    10    1
    12     9    11    1
    13    11    23    1
    14    23    24    2
    15    24    25    1
    16    25    26   ar
    17    26    27   ar
    18    27    28   ar
    19    28    31    1
    20    31    32   ar
    21    32    33   ar
    22    33    34   ar
    23    34    35   ar
    24    35    36   ar
    25    36    37    1
    26    37    38    3
    27    28    29   ar
    28    29    30   ar
    29    11    12    1
    30    12    13    1
    31    13    14    1
    32    13    15    1
    33    15    16    1
    34    16    17    2
    35    16    18    1
    36    18    19    1
    37    19     4    1
    38    18     6    1
    39    30    25   ar
    40    18    12    1
    41    36    31   ar
    42     1    20    1
@<TRIPOS>MOLECULE
*****
 38 42 0 0 0
SMALL
GASTEIGER

@<TRIPOS>ATOM
      1 N         140.0752  140.3595  168.9509 N.am    1  UNL1       -0.2888
      2 C         140.2784  141.6491  168.2123 C.2     1  UNL1        0.3040
      3 O         140.7036  142.8804  168.9560 O.2     1  UNL1       -0.2526
      4 N         140.0563  141.7075  166.7299 N.am    1  UNL1       -0.2637
      5 C         139.6322  140.5643  165.8562 C.3     1  UNL1        0.0955
      6 C         139.5331  141.0696  164.4474 C.3     1  UNL1        0.0317
      7 C         139.1593  140.3924  163.1622 C.3     1  UNL1        0.0025
      8 C         138.7965  138.9370  163.1593 C.3     1  UNL1        0.0001
      9 C         139.1484  141.1707  161.8799 C.3     1  UNL1        0.0042
     10 C         138.7746  140.4935  160.5947 C.3     1  UNL1        0.0003
     11 C         139.5112  142.6262  161.8829 C.3     1  UNL1        0.0261
     12 C         139.8850  143.3033  163.1681 C.3     1  UNL1        0.0559
     13 C         139.7725  142.7751  163.2871 C.3     1  UNL1        0.1697
     14 C         140.4070  145.8355  162.4895 C.3     1  UNL1        0.0473
     15 O         139.9495  143.0852  163.9125 O.3     1  UNL1       -0.4522
     16 C         139.7779  142.3860  163.9282 C.2     1  UNL1        0.3176
     17 O         140.4455  143.0958  167.0033 O.2     1  UNL1       -0.2501
     18 C         139.8959  142.5250  164.4503 C.3     1  UNL1        0.1130
     19 C         140.2192  142.9193  165.8610 C.3     1  UNL1        0.1056
     20 H         139.7961  139.5514  168.4627 H       1  UNL1        0.1510
     21 C         141.6761  140.4902  170.9930 C.3     1  UNL1        0.0230
     22 C         140.2973  140.3011  170.4332 C.3     1  UNL1        0.0910
     23 C         139.5003  143.4044  160.6006 C.2     1  UNL1       -0.0248
     24 C         140.7706  143.5894  159.8248 C.2     1  UNL1        0.0145
     25 C         140.7597  144.3677  158.5425 C.ar    1  UNL1        0.0810
     26 C         141.8743  145.3236  158.2359 C.ar    1  UNL1        0.0191
     27 C         141.8634  146.1019  156.9536 C.ar    1  UNL1        0.0031
     28 C         140.7379  145.9243  155.9780 C.ar    1  UNL1        0.0198
     29 C         139.6233  144.9684  156.2847 C.ar    1  UNL1        0.0988
     30 N         139.6343  144.1902  157.5669 N.ar    1  UNL1       -0.2438
     31 C         140.7270  146.7026  154.6958 C.ar    1  UNL1        0.0111
     32 C         139.9717  147.9956  154.6097 C.ar    1  UNL1        0.0007
     33 C         139.9607  148.7739  153.3274 C.ar    1  UNL1        0.0000
     34 C         140.7052  148.2591  152.1312 C.ar    1  UNL1        0.0007
     35 C         141.4605  146.9660  152.2174 C.ar    1  UNL1        0.0103
     36 C         141.4715  146.1878  153.4996 C.ar    1  UNL1        0.0685
     37 C         142.2268  144.8947  153.5857 C.1     1  UNL1        0.1004
     38 N         142.9822  143.6016  153.6718 N.1     1  UNL1       -0.1908
@<TRIPOS>BOND
     1    21    22    1
     2    22     1    1
     3     1     2   am
     4     2     3    2
     5     2     4   am
     6     4     5    1
     7     6     5    1
     8     6     7    1
     9     7     8    1
    10     7     9    1
    11     9    10    1
    12     9    11    1
    13    11    23    1
    14    23    24    2
    15    24    25    1
    16    25    26   ar
    17    26    27   ar
    18    27    28   ar
    19    28    31    1
    20    31    32   ar
    21    32    33   ar
    22    33    34   ar
    23    34    35   ar
    24    35    36   ar
    25    36    37    1
    26    37    38    3
    27    28    29   ar
    28    29    30   ar
    29    11    12    1
    30    12    13    1
    31    13    14    1
    32    13    15    1
    33    15    16    1
    34    16    17    2
    35    16    18    1
    36    18    19    1
    37    19     4    1
    38    18     6    1
    39    30    25   ar
    40    18    12    1
    41    36    31   ar
    42     1    20    1
@<TRIPOS>MOLECULE
*****
 38 42 0 0 0
SMALL
GASTEIGER

@<TRIPOS>ATOM
      1 N         140.9514  140.7680  169.7968 N.am    1  UNL1       -0.2888
      2 C         140.5800  141.7695  168.7437 C.2     1  UNL1        0.3040
      3 O         140.6972  143.2372  169.0299 O.2     1  UNL1       -0.2526
      4 N         140.0913  141.3032  167.4044 N.am    1  UNL1       -0.2637
      5 C         139.9228  139.8758  166.9753 C.3     1  UNL1        0.0955
      6 C         139.4128  139.8729  165.5647 C.3     1  UNL1        0.0317
      7 C         139.0630  138.7563  164.6262 C.3     1  UNL1        0.0025
      8 C         139.2097  137.3307  165.0689 C.3     1  UNL1        0.0001
      9 C         138.5664  139.0653  163.2448 C.3     1  UNL1        0.0042
     10 C         138.2166  137.9487  162.3064 C.3     1  UNL1        0.0003
     11 C         138.4197  140.4910  162.8021 C.3     1  UNL1        0.0261
     12 C         138.7695  141.6076  163.7407 C.3     1  UNL1        0.0559
     13 C         138.8618  141.1326  164.0084 C.3     1  UNL1        0.1697
     14 C         138.2915  143.8464  162.3607 C.3     1  UNL1        0.0473
     15 O         139.0340  141.6569  164.4710 O.3     1  UNL1       -0.4522
     16 C         139.1101  140.9781  164.6990 C.2     1  UNL1        0.3176
     17 O         140.0394  142.7586  167.2232 O.2     1  UNL1       -0.2501
     18 C         139.2660  141.2985  165.1219 C.3     1  UNL1        0.1130
     19 C         139.6854  142.1825  166.2589 C.3     1  UNL1        0.1056
     20 H         140.8744  139.8047  169.6089 H       1  UNL1        0.1510
     21 C         142.8875  141.5778  171.3284 C.3     1  UNL1        0.0230
     22 C         141.4400  141.2343  171.1361 C.3     1  UNL1        0.0910
     23 C         137.9231  140.8000  161.4208 C.2     1  UNL1       -0.0248
     24 C         138.8651  140.7423  160.2549 C.2     1  UNL1        0.0145
     25 C         138.3685  141.0514  158.8736 C.ar    1  UNL1        0.0810
     26 C         137.9304  142.4437  158.5281 C.ar    1  UNL1        0.0191
     27 C         137.4339  142.7528  157.1468 C.ar    1  UNL1        0.0031
     28 C         137.3755  141.6694  156.1109 C.ar    1  UNL1        0.0198
     29 C         137.8137  140.2770  156.4564 C.ar    1  UNL1        0.0988
     30 N         138.3102  139.9680  157.8377 N.ar    1  UNL1       -0.2438
     31 C         136.8791  141.9784  154.7296 C.ar    1  UNL1        0.0111
     32 C         137.5987  142.9849  153.8818 C.ar    1  UNL1        0.0007
     33 C         137.1022  143.2940  152.5004 C.ar    1  UNL1        0.0000
     34 C         135.8861  142.5964  151.9670 C.ar    1  UNL1        0.0007
     35 C         135.1665  141.5898  152.8150 C.ar    1  UNL1        0.0103
     36 C         135.6630  141.2808  154.1963 C.ar    1  UNL1        0.0685
     37 C         134.9434  140.2742  155.0441 C.1     1  UNL1        0.1004
     38 N         134.2237  139.2676  155.8921 N.1     1  UNL1       -0.1908
@<TRIPOS>BOND
     1    21    22    1
     2    22     1    1
     3     1     2   am
     4     2     3    2
     5     2     4   am
     6     4     5    1
     7     6     5    1
     8     6     7    1
     9     7     8    1
    10     7     9    1
    11     9    10    1
    12     9    11    1
    13    11    23    1
    14    23    24    2
    15    24    25    1
    16    25    26   ar
    17    26    27   ar
    18    27    28   ar
    19    28    31    1
    20    31    32   ar
    21    32    33   ar
    22    33    34   ar
    23    34    35   ar
    24    35    36   ar
    25    36    37    1
    26    37    38    3
    27    28    29   ar
    28    29    30   ar
    29    11    12    1
    30    12    13    1
    31    13    14    1
    32    13    15    1
    33    15    16    1
    34    16    17    2
    35    16    18    1
    36    18    19    1
    37    19     4    1
    38    18     6    1
    39    30    25   ar
    40    18    12    1
    41    36    31   ar
    42     1    20    1
