@<TRIPOS>MOLECULE
*****
 33 38 0 0 0
SMALL
GASTEIGER

@<TRIPOS>ATOM
      1 C         140.5249  144.5779  162.5537 C.ar    1  UNL1        0.0536
      2 C         139.5311  143.5590  163.0273 C.ar    1  UNL1        0.0045
      3 C         139.8270  142.7313  164.2428 C.ar    1  UNL1        0.0001
      4 C         141.1167  142.9226  164.9847 C.ar    1  UNL1       -0.0001
      5 C         142.1103  143.9415  164.5111 C.ar    1  UNL1        0.0001
      6 C         141.8145  144.7692  163.2956 C.ar    1  UNL1        0.0045
      7 C         141.4126  142.0949  166.2002 C.2     1  UNL1        0.0020
      8 C         140.9411  142.5491  167.5498 C.2     1  UNL1        0.0130
      9 C         141.2370  141.7214  168.7653 C.3     1  UNL1        0.1542
     10 C         140.4697  143.0033  168.8994 C.3     1  UNL1        0.0614
     11 C         139.9983  143.4574  170.2490 C.3     1  UNL1        0.0725
     12 N         140.2941  142.6297  171.4645 N.3     1  UNL1       -0.2972
     13 C         141.0614  141.3479  171.3303 C.3     1  UNL1        0.0725
     14 C         141.5329  140.8937  169.9807 C.3     1  UNL1        0.0614
     15 O         142.0043  140.4395  168.6311 O.3     1  UNL1       -0.4785
     16 C         142.4757  139.9853  167.2815 C.ar    1  UNL1        0.1386
     17 C         143.2431  138.7034  167.1473 C.ar    1  UNL1        0.0369
     18 C         143.7145  138.2492  165.7977 C.ar    1  UNL1        0.0031
     19 C         143.4186  139.0769  164.5823 C.ar    1  UNL1        0.0002
     20 C         142.6513  140.3588  164.7164 C.ar    1  UNL1        0.0030
     21 C         142.1799  140.8130  166.0660 C.ar    1  UNL1        0.0338
     22 H         139.3957  142.3924  171.8850 H       1  UNL1        0.1233
     23 O         139.2924  146.5732  161.4358 O.2     1  UNL1       -0.2699
     24 C         140.2290  145.4056  161.3383 C.2     1  UNL1        0.2495
     25 N         140.8697  145.0658  160.0253 N.am    1  UNL1       -0.2679
     26 C         141.8220  143.9341  159.7757 C.3     1  UNL1        0.1205
     27 C         142.2115  143.9668  158.3276 C.ar    1  UNL1       -0.0047
     28 C         143.1222  143.0965  157.5132 C.ar    1  UNL1       -0.0029
     29 C         143.3213  143.3781  156.0533 C.ar    1  UNL1       -0.0003
     30 C         142.6097  144.5301  155.4079 C.ar    1  UNL1       -0.0003
     31 C         141.6990  145.4004  156.2223 C.ar    1  UNL1       -0.0029
     32 C         141.4999  145.1188  157.6821 C.ar    1  UNL1       -0.0047
     33 C         140.6707  145.7980  158.7313 C.3     1  UNL1        0.1205
@<TRIPOS>BOND
     1    23    24    2
     2    24     1    1
     3     1     2   ar
     4     2     3   ar
     5     3     4   ar
     6     4     7    1
     7     7     8    2
     8     8     9    1
     9     9    10    1
    10    10    11    1
    11    11    12    1
    12    12    13    1
    13    13    14    1
    14     9    15    1
    15    15    16    1
    16    16    17   ar
    17    17    18   ar
    18    18    19   ar
    19    19    20   ar
    20    20    21   ar
    21     4     5   ar
    22     5     6   ar
    23    24    25   am
    24    25    26    1
    25    26    27    1
    26    27    28   ar
    27    28    29   ar
    28    29    30   ar
    29    30    31   ar
    30    31    32   ar
    31    32    33    1
    32     6     1   ar
    33    33    25    1
    34    21     7    1
    35    32    27   ar
    36    14     9    1
    37    21    16   ar
    38    12    22    1
@<TRIPOS>MOLECULE
*****
 33 38 0 0 0
SMALL
GASTEIGER

@<TRIPOS>ATOM
      1 C         143.4704  141.5706  162.3311 C.ar    1  UNL1        0.0536
      2 C         142.3201  142.4441  162.7360 C.ar    1  UNL1        0.0045
      3 C         141.6708  142.2563  164.0750 C.ar    1  UNL1        0.0001
      4 C         142.1718  141.1951  165.0093 C.ar    1  UNL1       -0.0001
      5 C         143.3221  140.3216  164.6045 C.ar    1  UNL1        0.0001
      6 C         143.9714  140.5094  163.2654 C.ar    1  UNL1        0.0045
      7 C         141.5225  141.0073  166.3484 C.2     1  UNL1        0.0020
      8 C         142.1364  141.6203  167.5721 C.2     1  UNL1        0.0130
      9 C         141.4871  141.4326  168.9112 C.3     1  UNL1        0.1542
     10 C         142.7502  142.2333  168.7958 C.3     1  UNL1        0.0614
     11 C         143.3640  142.8463  170.0195 C.3     1  UNL1        0.0725
     12 N         142.7147  142.6585  171.3586 N.3     1  UNL1       -0.2972
     13 C         141.4516  141.8578  171.4740 C.3     1  UNL1        0.0725
     14 C         140.8378  141.2448  170.2503 C.3     1  UNL1        0.0614
     15 O         140.2239  140.6318  169.0266 O.3     1  UNL1       -0.4785
     16 C         139.6101  140.0188  167.8029 C.ar    1  UNL1        0.1386
     17 C         138.3469  139.2180  167.9182 C.ar    1  UNL1        0.0369
     18 C         137.7331  138.6051  166.6946 C.ar    1  UNL1        0.0031
     19 C         138.3824  138.7928  165.3555 C.ar    1  UNL1        0.0002
     20 C         139.6455  139.5936  165.2401 C.ar    1  UNL1        0.0030
     21 C         140.2594  140.2066  166.4638 C.ar    1  UNL1        0.0338
     22 H         142.5066  143.5901  171.7182 H       1  UNL1        0.1233
     23 O         145.1830  142.8013  160.8137 O.2     1  UNL1       -0.2699
     24 C         144.1197  141.7583  160.9921 C.2     1  UNL1        0.2495
     25 N         143.7058  140.9032  159.8313 N.am    1  UNL1       -0.2679
     26 C         142.6626  139.8257  159.8578 C.3     1  UNL1        0.1205
     27 C         142.5744  139.2320  158.4832 C.ar    1  UNL1       -0.0047
     28 C         141.7215  138.1361  157.9160 C.ar    1  UNL1       -0.0029
     29 C         141.8574  137.7508  156.4726 C.ar    1  UNL1       -0.0003
     30 C         142.8461  138.4613  155.5966 C.ar    1  UNL1       -0.0003
     31 C         143.6990  139.5572  156.1638 C.ar    1  UNL1       -0.0029
     32 C         143.5632  139.9425  157.6070 C.ar    1  UNL1       -0.0047
     33 C         144.2624  140.9754  158.4403 C.3     1  UNL1        0.1205
@<TRIPOS>BOND
     1    23    24    2
     2    24     1    1
     3     1     2   ar
     4     2     3   ar
     5     3     4   ar
     6     4     7    1
     7     7     8    2
     8     8     9    1
     9     9    10    1
    10    10    11    1
    11    11    12    1
    12    12    13    1
    13    13    14    1
    14     9    15    1
    15    15    16    1
    16    16    17   ar
    17    17    18   ar
    18    18    19   ar
    19    19    20   ar
    20    20    21   ar
    21     4     5   ar
    22     5     6   ar
    23    24    25   am
    24    25    26    1
    25    26    27    1
    26    27    28   ar
    27    28    29   ar
    28    29    30   ar
    29    30    31   ar
    30    31    32   ar
    31    32    33    1
    32     6     1   ar
    33    33    25    1
    34    21     7    1
    35    32    27   ar
    36    14     9    1
    37    21    16   ar
    38    12    22    1
@<TRIPOS>MOLECULE
*****
 33 38 0 0 0
SMALL
GASTEIGER

@<TRIPOS>ATOM
      1 C         141.2705  137.1700  156.9243 C.ar    1  UNL1        0.0536
      2 C         140.0005  137.6965  157.5243 C.ar    1  UNL1        0.0045
      3 C         140.0537  138.5901  158.7279 C.ar    1  UNL1        0.0001
      4 C         141.3770  138.9573  159.3314 C.ar    1  UNL1       -0.0001
      5 C         142.6469  138.4308  158.7314 C.ar    1  UNL1        0.0001
      6 C         142.5937  137.5372  157.5278 C.ar    1  UNL1        0.0045
      7 C         141.4302  139.8509  160.5350 C.2     1  UNL1        0.0020
      8 C         141.5544  141.3357  160.3617 C.2     1  UNL1        0.0130
      9 C         141.6077  142.2294  161.5653 C.3     1  UNL1        0.1542
     10 C         141.6786  142.8205  160.1886 C.3     1  UNL1        0.0614
     11 C         141.8028  144.3053  160.0154 C.3     1  UNL1        0.0725
     12 N         141.8561  145.1989  161.2190 N.3     1  UNL1       -0.2972
     13 C         141.7851  144.6078  162.5957 C.3     1  UNL1        0.0725
     14 C         141.6609  143.1230  162.7689 C.3     1  UNL1        0.0614
     15 O         141.5367  141.6382  162.9421 O.3     1  UNL1       -0.4785
     16 C         141.4125  140.1534  163.1153 C.ar    1  UNL1        0.1386
     17 C         141.3416  139.5622  164.4921 C.ar    1  UNL1        0.0369
     18 C         141.2174  138.0775  164.6653 C.ar    1  UNL1        0.0031
     19 C         141.1641  137.1838  163.4617 C.ar    1  UNL1        0.0002
     20 C         141.2351  137.7750  162.0850 C.ar    1  UNL1        0.0030
     21 C         141.3593  139.2598  161.9117 C.ar    1  UNL1        0.0338
     22 H         141.0749  145.8496  161.1373 H       1  UNL1        0.1233
     23 O         140.3631  136.6508  154.5458 O.2     1  UNL1       -0.2699
     24 C         141.2173  136.2764  155.7207 C.2     1  UNL1        0.2495
     25 N         142.0181  135.0084  155.6920 N.am    1  UNL1       -0.2679
     26 C         142.9126  134.5057  156.7860 C.3     1  UNL1        0.1205
     27 C         143.5124  133.2071  156.3344 C.ar    1  UNL1       -0.0047
     28 C         144.4679  132.2589  156.9962 C.ar    1  UNL1       -0.0029
     29 C         144.8995  131.0109  156.2847 C.ar    1  UNL1       -0.0003
     30 C         144.3757  130.7111  154.9115 C.ar    1  UNL1       -0.0003
     31 C         143.4202  131.6593  154.2498 C.ar    1  UNL1       -0.0029
     32 C         142.9886  132.9073  154.9612 C.ar    1  UNL1       -0.0047
     33 C         142.0650  134.0206  154.5642 C.3     1  UNL1        0.1205
@<TRIPOS>BOND
     1    23    24    2
     2    24     1    1
     3     1     2   ar
     4     2     3   ar
     5     3     4   ar
     6     4     7    1
     7     7     8    2
     8     8     9    1
     9     9    10    1
    10    10    11    1
    11    11    12    1
    12    12    13    1
    13    13    14    1
    14     9    15    1
    15    15    16    1
    16    16    17   ar
    17    17    18   ar
    18    18    19   ar
    19    19    20   ar
    20    20    21   ar
    21     4     5   ar
    22     5     6   ar
    23    24    25   am
    24    25    26    1
    25    26    27    1
    26    27    28   ar
    27    28    29   ar
    28    29    30   ar
    29    30    31   ar
    30    31    32   ar
    31    32    33    1
    32     6     1   ar
    33    33    25    1
    34    21     7    1
    35    32    27   ar
    36    14     9    1
    37    21    16   ar
    38    12    22    1
@<TRIPOS>MOLECULE
*****
 33 38 0 0 0
SMALL
GASTEIGER

@<TRIPOS>ATOM
      1 C         140.5578  143.9799  157.2613 C.ar    1  UNL1        0.0536
      2 C         141.6040  144.0401  158.3345 C.ar    1  UNL1        0.0045
      3 C         141.3935  143.3119  159.6289 C.ar    1  UNL1        0.0001
      4 C         140.1366  142.5234  159.8500 C.ar    1  UNL1       -0.0001
      5 C         139.0905  142.4633  158.7768 C.ar    1  UNL1        0.0001
      6 C         139.3010  143.1915  157.4824 C.ar    1  UNL1        0.0045
      7 C         139.9261  141.7952  161.1443 C.2     1  UNL1        0.0020
      8 C         140.4675  140.4074  161.3208 C.2     1  UNL1        0.0130
      9 C         140.2570  139.6792  162.6151 C.3     1  UNL1        0.1542
     10 C         141.0090  139.0198  161.4972 C.3     1  UNL1        0.0614
     11 C         141.5504  137.6321  161.6737 C.3     1  UNL1        0.0725
     12 N         141.3398  136.9038  162.9680 N.3     1  UNL1       -0.2972
     13 C         140.5878  137.5633  164.0859 C.3     1  UNL1        0.0725
     14 C         140.0464  138.9509  163.9094 C.3     1  UNL1        0.0614
     15 O         139.5050  140.3387  163.7330 O.3     1  UNL1       -0.4785
     16 C         138.9635  141.7263  163.5565 C.ar    1  UNL1        0.1386
     17 C         138.2115  142.3858  164.6744 C.ar    1  UNL1        0.0369
     18 C         137.6701  143.7735  164.4979 C.ar    1  UNL1        0.0031
     19 C         137.8807  144.5018  163.2036 C.ar    1  UNL1        0.0002
     20 C         138.6326  143.8423  162.0857 C.ar    1  UNL1        0.0030
     21 C         139.1741  142.4546  162.2622 C.ar    1  UNL1        0.0338
     22 H         142.2651  136.6744  163.3307 H       1  UNL1        0.1233
     23 O         141.4919  144.0366  154.8376 O.2     1  UNL1       -0.2699
     24 C         140.7683  144.7082  155.9670 C.2     1  UNL1        0.2495
     25 N         140.2553  146.1080  155.8019 N.am    1  UNL1       -0.2679
     26 C         139.5174  146.9044  156.8370 C.3     1  UNL1        0.1205
     27 C         139.1962  148.2458  156.2477 C.ar    1  UNL1       -0.0047
     28 C         138.4822  149.4417  156.8044 C.ar    1  UNL1       -0.0029
     29 C         138.3076  150.6704  155.9618 C.ar    1  UNL1       -0.0003
     30 C         138.8469  150.7031  154.5625 C.ar    1  UNL1       -0.0003
     31 C         139.5609  149.5072  154.0058 C.ar    1  UNL1       -0.0029
     32 C         139.7355  148.2785  154.8483 C.ar    1  UNL1       -0.0047
     33 C         140.3901  146.9573  154.5729 C.3     1  UNL1        0.1205
@<TRIPOS>BOND
     1    23    24    2
     2    24     1    1
     3     1     2   ar
     4     2     3   ar
     5     3     4   ar
     6     4     7    1
     7     7     8    2
     8     8     9    1
     9     9    10    1
    10    10    11    1
    11    11    12    1
    12    12    13    1
    13    13    14    1
    14     9    15    1
    15    15    16    1
    16    16    17   ar
    17    17    18   ar
    18    18    19   ar
    19    19    20   ar
    20    20    21   ar
    21     4     5   ar
    22     5     6   ar
    23    24    25   am
    24    25    26    1
    25    26    27    1
    26    27    28   ar
    27    28    29   ar
    28    29    30   ar
    29    30    31   ar
    30    31    32   ar
    31    32    33    1
    32     6     1   ar
    33    33    25    1
    34    21     7    1
    35    32    27   ar
    36    14     9    1
    37    21    16   ar
    38    12    22    1
@<TRIPOS>MOLECULE
*****
 33 38 0 0 0
SMALL
GASTEIGER

@<TRIPOS>ATOM
      1 C         143.0337  142.4122  162.3380 C.ar    1  UNL1        0.0536
      2 C         142.5216  143.4851  163.2528 C.ar    1  UNL1        0.0045
      3 C         141.9400  143.1192  164.5862 C.ar    1  UNL1        0.0001
      4 C         141.8705  141.6803  165.0047 C.ar    1  UNL1       -0.0001
      5 C         142.3826  140.6076  164.0899 C.ar    1  UNL1        0.0001
      6 C         142.9641  140.9735  162.7565 C.ar    1  UNL1        0.0045
      7 C         141.2889  141.3144  166.3380 C.2     1  UNL1        0.0020
      8 C         141.8980  141.8578  167.5966 C.2     1  UNL1        0.0130
      9 C         141.3164  141.4918  168.9299 C.3     1  UNL1        0.1542
     10 C         142.5071  142.4011  168.8551 C.3     1  UNL1        0.0614
     11 C         143.1161  142.9444  170.1136 C.3     1  UNL1        0.0725
     12 N         142.5345  142.5785  171.4469 N.3     1  UNL1       -0.2972
     13 C         141.3439  141.6692  171.5218 C.3     1  UNL1        0.0725
     14 C         140.7349  141.1259  170.2633 C.3     1  UNL1        0.0614
     15 O         140.1258  140.5825  169.0048 O.3     1  UNL1       -0.4785
     16 C         139.5168  140.0392  167.7463 C.ar    1  UNL1        0.1386
     17 C         138.3261  139.1299  167.8211 C.ar    1  UNL1        0.0369
     18 C         137.7171  138.5866  166.5626 C.ar    1  UNL1        0.0031
     19 C         138.2986  138.9525  165.2293 C.ar    1  UNL1        0.0002
     20 C         139.4892  139.8618  165.1544 C.ar    1  UNL1        0.0030
     21 C         140.0983  140.4051  166.4129 C.ar    1  UNL1        0.0338
     22 H         142.2671  143.4517  171.9012 H       1  UNL1        0.1233
     23 O         145.1031  142.8615  160.8327 O.2     1  UNL1       -0.2699
     24 C         143.6152  142.7782  161.0046 C.2     1  UNL1        0.2495
     25 N         142.7091  143.0608  159.8432 N.am    1  UNL1       -0.2679
     26 C         141.2099  143.0170  159.8636 C.3     1  UNL1        0.1205
     27 C         140.7172  143.3660  158.4905 C.ar    1  UNL1       -0.0047
     28 C         139.3350  143.4810  157.9192 C.ar    1  UNL1       -0.0029
     29 C         139.1476  143.8555  156.4788 C.ar    1  UNL1       -0.0003
     30 C         140.3424  144.1148  155.6097 C.ar    1  UNL1       -0.0003
     31 C         141.7245  143.9998  156.1810 C.ar    1  UNL1       -0.0029
     32 C         141.9120  143.6254  157.6213 C.ar    1  UNL1       -0.0047
     33 C         143.1430  143.4368  158.4574 C.3     1  UNL1        0.1205
@<TRIPOS>BOND
     1    23    24    2
     2    24     1    1
     3     1     2   ar
     4     2     3   ar
     5     3     4   ar
     6     4     7    1
     7     7     8    2
     8     8     9    1
     9     9    10    1
    10    10    11    1
    11    11    12    1
    12    12    13    1
    13    13    14    1
    14     9    15    1
    15    15    16    1
    16    16    17   ar
    17    17    18   ar
    18    18    19   ar
    19    19    20   ar
    20    20    21   ar
    21     4     5   ar
    22     5     6   ar
    23    24    25   am
    24    25    26    1
    25    26    27    1
    26    27    28   ar
    27    28    29   ar
    28    29    30   ar
    29    30    31   ar
    30    31    32   ar
    31    32    33    1
    32     6     1   ar
    33    33    25    1
    34    21     7    1
    35    32    27   ar
    36    14     9    1
    37    21    16   ar
    38    12    22    1
@<TRIPOS>MOLECULE
*****
 33 38 0 0 0
SMALL
GASTEIGER

@<TRIPOS>ATOM
      1 C         140.3013  138.5209  163.5667 C.ar    1  UNL1        0.0536
      2 C         139.6389  139.3019  162.4707 C.ar    1  UNL1        0.0045
      3 C         140.3357  139.4876  161.1554 C.ar    1  UNL1        0.0001
      4 C         141.6950  138.8922  160.9362 C.ar    1  UNL1       -0.0001
      5 C         142.3574  138.1112  162.0322 C.ar    1  UNL1        0.0001
      6 C         141.6605  137.9256  163.3475 C.ar    1  UNL1        0.0045
      7 C         142.3918  139.0779  159.6209 C.2     1  UNL1        0.0020
      8 C         142.2203  138.0613  158.5312 C.2     1  UNL1        0.0130
      9 C         142.9172  138.2470  157.2159 C.3     1  UNL1        0.1542
     10 C         142.0489  137.0449  157.4415 C.3     1  UNL1        0.0614
     11 C         141.8774  136.0285  156.3519 C.3     1  UNL1        0.0725
     12 N         142.5742  136.2141  155.0366 N.3     1  UNL1       -0.2972
     13 C         143.4425  137.4162  154.8110 C.3     1  UNL1        0.0725
     14 C         143.6140  138.4327  155.9007 C.3     1  UNL1        0.0614
     15 O         143.7855  139.4492  156.9904 O.3     1  UNL1       -0.4785
     16 C         143.9570  140.4656  158.0800 C.ar    1  UNL1        0.1386
     17 C         144.8254  141.6678  157.8544 C.ar    1  UNL1        0.0369
     18 C         144.9968  142.6842  158.9441 C.ar    1  UNL1        0.0031
     19 C         144.3000  142.4986  160.2594 C.ar    1  UNL1        0.0002
     20 C         143.4317  141.2965  160.4850 C.ar    1  UNL1        0.0030
     21 C         143.2602  140.2800  159.3953 C.ar    1  UNL1        0.0338
     22 H         141.8490  136.2360  154.3197 H       1  UNL1        0.1233
     23 O         138.7030  137.1550  165.0931 O.2     1  UNL1       -0.2699
     24 C         139.6045  138.3352  164.8820 C.2     1  UNL1        0.2495
     25 N         139.8090  139.3297  165.9861 N.am    1  UNL1       -0.2679
     26 C         140.6758  140.5523  165.9221 C.3     1  UNL1        0.1205
     27 C         140.5852  141.2545  167.2445 C.ar    1  UNL1       -0.0047
     28 C         141.2237  142.5100  167.7600 C.ar    1  UNL1       -0.0029
     29 C         140.9395  142.9770  169.1569 C.ar    1  UNL1       -0.0003
     30 C         140.0168  142.1885  170.0381 C.ar    1  UNL1       -0.0003
     31 C         139.3782  140.9329  169.5226 C.ar    1  UNL1       -0.0029
     32 C         139.6624  140.4659  168.1258 C.ar    1  UNL1       -0.0047
     33 C         139.1828  139.2763  167.3481 C.3     1  UNL1        0.1205
@<TRIPOS>BOND
     1    23    24    2
     2    24     1    1
     3     1     2   ar
     4     2     3   ar
     5     3     4   ar
     6     4     7    1
     7     7     8    2
     8     8     9    1
     9     9    10    1
    10    10    11    1
    11    11    12    1
    12    12    13    1
    13    13    14    1
    14     9    15    1
    15    15    16    1
    16    16    17   ar
    17    17    18   ar
    18    18    19   ar
    19    19    20   ar
    20    20    21   ar
    21     4     5   ar
    22     5     6   ar
    23    24    25   am
    24    25    26    1
    25    26    27    1
    26    27    28   ar
    27    28    29   ar
    28    29    30   ar
    29    30    31   ar
    30    31    32   ar
    31    32    33    1
    32     6     1   ar
    33    33    25    1
    34    21     7    1
    35    32    27   ar
    36    14     9    1
    37    21    16   ar
    38    12    22    1
@<TRIPOS>MOLECULE
*****
 33 38 0 0 0
SMALL
GASTEIGER

@<TRIPOS>ATOM
      1 C         139.5731  139.7065  159.1192 C.ar    1  UNL1        0.0536
      2 C         138.7339  139.1525  160.2323 C.ar    1  UNL1        0.0045
      3 C         139.0057  139.5589  161.6503 C.ar    1  UNL1        0.0001
      4 C         140.1169  140.5194  161.9553 C.ar    1  UNL1       -0.0001
      5 C         140.9561  141.0733  160.8423 C.ar    1  UNL1        0.0001
      6 C         140.6842  140.6669  159.4243 C.ar    1  UNL1        0.0045
      7 C         140.3888  140.9258  163.3734 C.2     1  UNL1        0.0020
      8 C         141.2635  140.0726  164.2436 C.2     1  UNL1        0.0130
      9 C         141.5354  140.4791  165.6616 C.3     1  UNL1        0.1542
     10 C         142.1381  139.2195  165.1137 C.3     1  UNL1        0.0614
     11 C         143.0127  138.3664  165.9839 C.3     1  UNL1        0.0725
     12 N         143.2846  138.7729  167.4019 N.3     1  UNL1       -0.2972
     13 C         142.6819  140.0324  167.9498 C.3     1  UNL1        0.0725
     14 C         141.8073  140.8855  167.0797 C.3     1  UNL1        0.0614
     15 O         140.9326  141.7387  166.2095 O.3     1  UNL1       -0.4785
     16 C         140.0580  142.5918  165.3393 C.ar    1  UNL1        0.1386
     17 C         139.4552  143.8514  165.8872 C.ar    1  UNL1        0.0369
     18 C         138.5806  144.7045  165.0171 C.ar    1  UNL1        0.0031
     19 C         138.3087  144.2981  163.5990 C.ar    1  UNL1        0.0002
     20 C         138.9114  143.0385  163.0511 C.ar    1  UNL1        0.0030
     21 C         139.7861  142.1853  163.9213 C.ar    1  UNL1        0.0338
     22 H         144.2962  138.8669  167.4925 H       1  UNL1        0.1233
     23 O         138.1449  139.9002  156.9575 O.2     1  UNL1       -0.2699
     24 C         139.3012  139.3000  157.7012 C.2     1  UNL1        0.2495
     25 N         140.1856  138.2935  157.0268 N.am    1  UNL1       -0.2679
     26 C         141.3724  137.6115  157.6400 C.3     1  UNL1        0.1205
     27 C         141.9587  136.6888  156.6130 C.ar    1  UNL1       -0.0047
     28 C         143.1368  135.7612  156.6530 C.ar    1  UNL1       -0.0029
     29 C         143.4904  134.9454  155.4448 C.ar    1  UNL1       -0.0003
     30 C         142.6659  135.0572  154.1968 C.ar    1  UNL1       -0.0003
     31 C         141.4878  135.9848  154.1568 C.ar    1  UNL1       -0.0029
     32 C         141.1341  136.8006  155.3649 C.ar    1  UNL1       -0.0047
     33 C         140.0383  137.7924  155.6206 C.3     1  UNL1        0.1205
@<TRIPOS>BOND
     1    23    24    2
     2    24     1    1
     3     1     2   ar
     4     2     3   ar
     5     3     4   ar
     6     4     7    1
     7     7     8    2
     8     8     9    1
     9     9    10    1
    10    10    11    1
    11    11    12    1
    12    12    13    1
    13    13    14    1
    14     9    15    1
    15    15    16    1
    16    16    17   ar
    17    17    18   ar
    18    18    19   ar
    19    19    20   ar
    20    20    21   ar
    21     4     5   ar
    22     5     6   ar
    23    24    25   am
    24    25    26    1
    25    26    27    1
    26    27    28   ar
    27    28    29   ar
    28    29    30   ar
    29    30    31   ar
    30    31    32   ar
    31    32    33    1
    32     6     1   ar
    33    33    25    1
    34    21     7    1
    35    32    27   ar
    36    14     9    1
    37    21    16   ar
    38    12    22    1
@<TRIPOS>MOLECULE
*****
 33 38 0 0 0
SMALL
GASTEIGER

@<TRIPOS>ATOM
      1 C         141.3790  138.0311  157.7079 C.ar    1  UNL1        0.0536
      2 C         142.6589  138.6659  158.1651 C.ar    1  UNL1        0.0045
      3 C         142.6784  139.5018  159.4105 C.ar    1  UNL1        0.0001
      4 C         141.4180  139.7029  160.1986 C.ar    1  UNL1       -0.0001
      5 C         140.1382  139.0681  159.7414 C.ar    1  UNL1        0.0001
      6 C         140.1187  138.2323  158.4960 C.ar    1  UNL1        0.0045
      7 C         141.4376  140.5388  161.4440 C.2     1  UNL1        0.0020
      8 C         141.2803  142.0276  161.3505 C.2     1  UNL1        0.0130
      9 C         141.2998  142.8635  162.5959 C.3     1  UNL1        0.1542
     10 C         141.1230  143.5164  161.2571 C.3     1  UNL1        0.0614
     11 C         140.9658  145.0052  161.1636 C.3     1  UNL1        0.0725
     12 N         140.9853  145.8410  162.4090 N.3     1  UNL1       -0.2972
     13 C         141.1621  145.1881  163.7478 C.3     1  UNL1        0.0725
     14 C         141.3193  143.6994  163.8412 C.3     1  UNL1        0.0614
     15 O         141.4766  142.2105  163.9347 O.3     1  UNL1       -0.4785
     16 C         141.6338  140.7218  164.0282 C.ar    1  UNL1        0.1386
     17 C         141.8106  140.0688  165.3670 C.ar    1  UNL1        0.0369
     18 C         141.9679  138.5800  165.4604 C.ar    1  UNL1        0.0031
     19 C         141.9484  137.7441  164.2151 C.ar    1  UNL1        0.0002
     20 C         141.7716  138.3970  162.8763 C.ar    1  UNL1        0.0030
     21 C         141.6143  139.8859  162.7828 C.ar    1  UNL1        0.0338
     22 H         140.0977  146.3426  162.4409 H       1  UNL1        0.1233
     23 O         140.5709  137.6463  155.2688 O.2     1  UNL1       -0.2699
     24 C         141.3595  137.1953  156.4625 C.2     1  UNL1        0.2495
     25 N         142.1284  135.9084  156.4108 N.am    1  UNL1       -0.2679
     26 C         142.9579  135.3318  157.5197 C.3     1  UNL1        0.1205
     27 C         143.5451  134.0393  157.0354 C.ar    1  UNL1       -0.0047
     28 C         144.4443  133.0360  157.6947 C.ar    1  UNL1       -0.0029
     29 C         144.8770  131.8104  156.9458 C.ar    1  UNL1       -0.0003
     30 C         144.4105  131.5882  155.5377 C.ar    1  UNL1       -0.0003
     31 C         143.5113  132.5915  154.8784 C.ar    1  UNL1       -0.0029
     32 C         143.0785  133.8171  155.6272 C.ar    1  UNL1       -0.0047
     33 C         142.2030  134.9723  155.2412 C.3     1  UNL1        0.1205
@<TRIPOS>BOND
     1    23    24    2
     2    24     1    1
     3     1     2   ar
     4     2     3   ar
     5     3     4   ar
     6     4     7    1
     7     7     8    2
     8     8     9    1
     9     9    10    1
    10    10    11    1
    11    11    12    1
    12    12    13    1
    13    13    14    1
    14     9    15    1
    15    15    16    1
    16    16    17   ar
    17    17    18   ar
    18    18    19   ar
    19    19    20   ar
    20    20    21   ar
    21     4     5   ar
    22     5     6   ar
    23    24    25   am
    24    25    26    1
    25    26    27    1
    26    27    28   ar
    27    28    29   ar
    28    29    30   ar
    29    30    31   ar
    30    31    32   ar
    31    32    33    1
    32     6     1   ar
    33    33    25    1
    34    21     7    1
    35    32    27   ar
    36    14     9    1
    37    21    16   ar
    38    12    22    1
@<TRIPOS>MOLECULE
*****
 33 38 0 0 0
SMALL
GASTEIGER

@<TRIPOS>ATOM
      1 C         139.9799  138.6630  161.4190 C.ar    1  UNL1        0.0536
      2 C         139.6290  139.4793  160.2104 C.ar    1  UNL1        0.0045
      3 C         140.6082  139.6066  159.0813 C.ar    1  UNL1        0.0001
      4 C         141.9383  138.9174  159.1607 C.ar    1  UNL1       -0.0001
      5 C         142.2890  138.1012  160.3693 C.ar    1  UNL1        0.0001
      6 C         141.3098  137.9740  161.4984 C.ar    1  UNL1        0.0045
      7 C         142.9175  139.0447  158.0316 C.2     1  UNL1        0.0020
      8 C         143.8174  140.2420  157.9506 C.2     1  UNL1        0.0130
      9 C         144.7966  140.3692  156.8215 C.3     1  UNL1        0.1542
     10 C         144.7174  141.4393  157.8696 C.3     1  UNL1        0.0614
     11 C         145.6173  142.6366  157.7886 C.3     1  UNL1        0.0725
     12 N         146.5965  142.7638  156.6595 N.3     1  UNL1       -0.2972
     13 C         146.6758  141.6937  155.6113 C.3     1  UNL1        0.0725
     14 C         145.7758  140.4965  155.6923 C.3     1  UNL1        0.0614
     15 O         144.8759  139.2991  155.7733 O.3     1  UNL1       -0.4785
     16 C         143.9760  138.1018  155.8543 C.ar    1  UNL1        0.1386
     17 C         144.0552  137.0317  154.8061 C.ar    1  UNL1        0.0369
     18 C         143.1553  135.8344  154.8871 C.ar    1  UNL1        0.0031
     19 C         142.1761  135.7072  156.0163 C.ar    1  UNL1        0.0002
     20 C         142.0968  136.7772  157.0644 C.ar    1  UNL1        0.0030
     21 C         142.9967  137.9746  156.9834 C.ar    1  UNL1        0.0338
     22 H         147.5232  142.8334  157.0798 H       1  UNL1        0.1233
     23 O         137.6345  137.9699  162.2960 O.2     1  UNL1       -0.2699
     24 C         139.0007  138.5358  162.5482 C.2     1  UNL1        0.2495
     25 N         139.3875  138.9744  163.9294 N.am    1  UNL1       -0.2679
     26 C         140.7104  139.5560  164.3316 C.3     1  UNL1        0.1205
     27 C         140.6599  139.8495  165.8018 C.ar    1  UNL1       -0.0047
     28 C         141.6720  140.4295  166.7448 C.ar    1  UNL1       -0.0029
     29 C         141.3300  140.6093  168.1942 C.ar    1  UNL1       -0.0003
     30 C         139.9759  140.2092  168.7006 C.ar    1  UNL1       -0.0003
     31 C         138.9639  139.6292  167.7575 C.ar    1  UNL1       -0.0029
     32 C         139.3058  139.4494  166.3082 C.ar    1  UNL1       -0.0047
     33 C         138.5195  138.9085  165.1510 C.3     1  UNL1        0.1205
@<TRIPOS>BOND
     1    23    24    2
     2    24     1    1
     3     1     2   ar
     4     2     3   ar
     5     3     4   ar
     6     4     7    1
     7     7     8    2
     8     8     9    1
     9     9    10    1
    10    10    11    1
    11    11    12    1
    12    12    13    1
    13    13    14    1
    14     9    15    1
    15    15    16    1
    16    16    17   ar
    17    17    18   ar
    18    18    19   ar
    19    19    20   ar
    20    20    21   ar
    21     4     5   ar
    22     5     6   ar
    23    24    25   am
    24    25    26    1
    25    26    27    1
    26    27    28   ar
    27    28    29   ar
    28    29    30   ar
    29    30    31   ar
    30    31    32   ar
    31    32    33    1
    32     6     1   ar
    33    33    25    1
    34    21     7    1
    35    32    27   ar
    36    14     9    1
    37    21    16   ar
    38    12    22    1
