@<TRIPOS>MOLECULE
*****
 30 34 0 0 0
SMALL
GASTEIGER

@<TRIPOS>ATOM
      1 C         141.4635  142.0600  166.2246 C.2     1  UNL1        0.0020
      2 C         140.9689  142.5216  167.5634 C.2     1  UNL1        0.0130
      3 C         141.2472  141.7025  168.7889 C.3     1  UNL1        0.1542
      4 C         140.4744  142.9831  168.9022 C.3     1  UNL1        0.0614
      5 C         139.9799  143.4447  170.2410 C.3     1  UNL1        0.0725
      6 N         140.2582  142.6256  171.4665 N.3     1  UNL1       -0.2972
      7 C         141.0309  141.3450  171.3531 C.3     1  UNL1        0.0725
      8 C         141.5254  140.8834  170.0143 C.3     1  UNL1        0.0614
      9 O         142.0199  140.4218  168.6755 O.3     1  UNL1       -0.4785
     10 C         142.5144  139.9603  167.3367 C.ar    1  UNL1        0.1386
     11 C         143.2872  138.6796  167.2232 C.ar    1  UNL1        0.0369
     12 C         143.7817  138.2181  165.8845 C.ar    1  UNL1        0.0031
     13 C         143.5034  139.0372  164.6590 C.ar    1  UNL1        0.0002
     14 C         142.7307  140.3178  164.7724 C.ar    1  UNL1        0.0030
     15 C         142.2362  140.7794  166.1112 C.ar    1  UNL1        0.0338
     16 H         139.3536  142.3886  171.8738 H       1  UNL1        0.1233
     17 C         140.6287  144.5172  162.5483 C.ar    1  UNL1        0.0536
     18 C         139.6777  143.4313  162.9564 C.ar    1  UNL1        0.0045
     19 C         139.9560  142.6123  164.1819 C.ar    1  UNL1        0.0001
     20 C         141.1852  142.8791  164.9991 C.ar    1  UNL1       -0.0001
     21 C         142.1361  143.9649  164.5909 C.ar    1  UNL1        0.0001
     22 C         141.8579  144.7840  163.3655 C.ar    1  UNL1        0.0045
     23 O         139.3498  146.4524  161.3780 O.2     1  UNL1       -0.2699
     24 C         140.3505  145.3363  161.3228 C.2     1  UNL1        0.2492
     25 N         141.0730  145.0393  160.0423 N.am    1  UNL1       -0.2709
     26 C         142.0737  143.9233  159.9871 C.3     1  UNL1        0.1258
     27 C         142.7961  143.6263  158.7066 C.3     1  UNL1        0.1637
     28 O         142.5179  144.4454  157.4811 O.3     1  UNL1       -0.3501
     29 C         141.5172  145.5614  157.5362 C.3     1  UNL1        0.1637
     30 C         140.7947  145.8584  158.8168 C.3     1  UNL1        0.1258
@<TRIPOS>BOND
     1    23    24    2
     2    24    17    1
     3    17    18   ar
     4    18    19   ar
     5    19    20   ar
     6    20     1    1
     7     1     2    2
     8     2     3    1
     9     3     4    1
    10     4     5    1
    11     5     6    1
    12     6     7    1
    13     7     8    1
    14     3     9    1
    15     9    10    1
    16    10    11   ar
    17    11    12   ar
    18    12    13   ar
    19    13    14   ar
    20    14    15   ar
    21    20    21   ar
    22    21    22   ar
    23    24    25   am
    24    25    26    1
    25    26    27    1
    26    27    28    1
    27    28    29    1
    28    29    30    1
    29    22    17   ar
    30    30    25    1
    31    15     1    1
    32     8     3    1
    33    15    10   ar
    34     6    16    1
@<TRIPOS>MOLECULE
*****
 30 34 0 0 0
SMALL
GASTEIGER

@<TRIPOS>ATOM
      1 C         139.8102  141.9438  165.8015 C.2     1  UNL1        0.0020
      2 C         140.1854  142.4482  167.1635 C.2     1  UNL1        0.0130
      3 C         140.1629  141.5181  168.3401 C.3     1  UNL1        0.1542
      4 C         140.5605  142.9525  168.5254 C.3     1  UNL1        0.0614
      5 C         140.9357  143.4569  169.8873 C.3     1  UNL1        0.0725
      6 N         140.9132  142.5268  171.0639 N.3     1  UNL1       -0.2972
      7 C         140.5155  141.0925  170.8787 C.3     1  UNL1        0.0725
      8 C         140.1404  140.5881  169.5168 C.3     1  UNL1        0.0614
      9 O         139.7652  140.0837  168.1548 O.3     1  UNL1       -0.4785
     10 C         139.3901  139.5793  166.7929 C.ar    1  UNL1        0.1386
     11 C         138.9924  138.1449  166.6076 C.ar    1  UNL1        0.0369
     12 C         138.6172  137.6405  165.2457 C.ar    1  UNL1        0.0031
     13 C         138.6397  138.5706  164.0690 C.ar    1  UNL1        0.0002
     14 C         139.0374  140.0049  164.2543 C.ar    1  UNL1        0.0030
     15 C         139.4126  140.5094  165.6162 C.ar    1  UNL1        0.0338
     16 H         140.2655  142.9266  171.7429 H       1  UNL1        0.1233
     17 C         139.8777  144.7339  162.2715 C.ar    1  UNL1        0.0536
     18 C         141.1644  144.2156  162.8426 C.ar    1  UNL1        0.0045
     19 C         141.1419  143.2856  164.0193 C.ar    1  UNL1        0.0001
     20 C         139.8327  142.8738  164.6248 C.ar    1  UNL1       -0.0001
     21 C         138.5462  143.3920  164.0537 C.ar    1  UNL1        0.0001
     22 C         138.5687  144.3220  162.8771 C.ar    1  UNL1        0.0045
     23 O         139.6101  147.1231  161.2865 O.2     1  UNL1       -0.2699
     24 C         139.9002  145.6639  161.0949 C.2     1  UNL1        0.2492
     25 N         140.2129  145.1348  159.7266 N.am    1  UNL1       -0.2709
     26 C         140.5031  143.6756  159.5349 C.3     1  UNL1        0.1258
     27 C         140.8158  143.1466  158.1666 C.3     1  UNL1        0.1637
     28 O         140.8383  144.0766  156.9899 O.3     1  UNL1       -0.3501
     29 C         140.5481  145.5357  157.1815 C.3     1  UNL1        0.1637
     30 C         140.2354  146.0649  158.5499 C.3     1  UNL1        0.1258
@<TRIPOS>BOND
     1    23    24    2
     2    24    17    1
     3    17    18   ar
     4    18    19   ar
     5    19    20   ar
     6    20     1    1
     7     1     2    2
     8     2     3    1
     9     3     4    1
    10     4     5    1
    11     5     6    1
    12     6     7    1
    13     7     8    1
    14     3     9    1
    15     9    10    1
    16    10    11   ar
    17    11    12   ar
    18    12    13   ar
    19    13    14   ar
    20    14    15   ar
    21    20    21   ar
    22    21    22   ar
    23    24    25   am
    24    25    26    1
    25    26    27    1
    26    27    28    1
    27    28    29    1
    28    29    30    1
    29    22    17   ar
    30    30    25    1
    31    15     1    1
    32     8     3    1
    33    15    10   ar
    34     6    16    1
@<TRIPOS>MOLECULE
*****
 30 34 0 0 0
SMALL
GASTEIGER

@<TRIPOS>ATOM
      1 C         141.5063  140.9491  166.3090 C.2     1  UNL1        0.0020
      2 C         142.1297  141.5728  167.5225 C.2     1  UNL1        0.0130
      3 C         141.4883  141.4007  168.8675 C.3     1  UNL1        0.1542
      4 C         142.7530  142.1964  168.7360 C.3     1  UNL1        0.0614
      5 C         143.3763  142.8200  169.9494 C.3     1  UNL1        0.0725
      6 N         142.7348  142.6480  171.2944 N.3     1  UNL1       -0.2972
      7 C         141.4701  141.8524  171.4260 C.3     1  UNL1        0.0725
      8 C         140.8468  141.2287  170.2125 C.3     1  UNL1        0.0614
      9 O         140.2235  140.6050  168.9990 O.3     1  UNL1       -0.4785
     10 C         139.6002  139.9814  167.7856 C.ar    1  UNL1        0.1386
     11 C         138.3354  139.1857  167.9170 C.ar    1  UNL1        0.0369
     12 C         137.7121  138.5620  166.7036 C.ar    1  UNL1        0.0031
     13 C         138.3535  138.7340  165.3586 C.ar    1  UNL1        0.0002
     14 C         139.6182  139.5297  165.2271 C.ar    1  UNL1        0.0030
     15 C         140.2416  140.1534  166.4406 C.ar    1  UNL1        0.0338
     16 H         142.5318  143.5839  171.6457 H       1  UNL1        0.1233
     17 C         143.4306  141.4651  162.2741 C.ar    1  UNL1        0.0536
     18 C         142.2912  142.3520  162.6806 C.ar    1  UNL1        0.0045
     19 C         141.6498  142.1800  164.0255 C.ar    1  UNL1        0.0001
     20 C         142.1478  141.1211  164.9641 C.ar    1  UNL1       -0.0001
     21 C         143.2871  140.2342  164.5576 C.ar    1  UNL1        0.0001
     22 C         143.9286  140.4062  163.2126 C.ar    1  UNL1        0.0045
     23 O         145.1647  142.6479  160.7430 O.2     1  UNL1       -0.2699
     24 C         144.0720  141.6371  160.9291 C.2     1  UNL1        0.2492
     25 N         143.6209  140.7984  159.7703 N.am    1  UNL1       -0.2709
     26 C         142.5283  139.7876  159.9564 C.3     1  UNL1        0.1258
     27 C         142.0772  138.9489  158.7975 C.3     1  UNL1        0.1637
     28 O         142.7186  139.1209  157.4525 O.3     1  UNL1       -0.3501
     29 C         143.8112  140.1316  157.2664 C.3     1  UNL1        0.1637
     30 C         144.2624  140.9704  158.4253 C.3     1  UNL1        0.1258
@<TRIPOS>BOND
     1    23    24    2
     2    24    17    1
     3    17    18   ar
     4    18    19   ar
     5    19    20   ar
     6    20     1    1
     7     1     2    2
     8     2     3    1
     9     3     4    1
    10     4     5    1
    11     5     6    1
    12     6     7    1
    13     7     8    1
    14     3     9    1
    15     9    10    1
    16    10    11   ar
    17    11    12   ar
    18    12    13   ar
    19    13    14   ar
    20    14    15   ar
    21    20    21   ar
    22    21    22   ar
    23    24    25   am
    24    25    26    1
    25    26    27    1
    26    27    28    1
    27    28    29    1
    28    29    30    1
    29    22    17   ar
    30    30    25    1
    31    15     1    1
    32     8     3    1
    33    15    10   ar
    34     6    16    1
@<TRIPOS>MOLECULE
*****
 30 34 0 0 0
SMALL
GASTEIGER

@<TRIPOS>ATOM
      1 C         141.9717  142.3502  162.3376 C.2     1  UNL1        0.0020
      2 C         142.6248  141.6014  161.2139 C.2     1  UNL1        0.0130
      3 C         142.5327  142.1241  159.8109 C.3     1  UNL1        0.1542
      4 C         143.2779  140.8526  160.0902 C.3     1  UNL1        0.0614
      5 C         143.9310  140.1038  158.9665 C.3     1  UNL1        0.0725
      6 N         143.8389  140.6265  157.5635 N.3     1  UNL1       -0.2972
      7 C         143.0938  141.8980  157.2842 C.3     1  UNL1        0.0725
      8 C         142.4407  142.6467  158.4079 C.3     1  UNL1        0.0614
      9 O         141.7875  143.3956  159.5316 O.3     1  UNL1       -0.4785
     10 C         141.1344  144.1444  160.6553 C.ar    1  UNL1        0.1386
     11 C         140.3892  145.4159  160.3761 C.ar    1  UNL1        0.0369
     12 C         139.7361  146.1647  161.4998 C.ar    1  UNL1        0.0031
     13 C         139.8282  145.6420  162.9028 C.ar    1  UNL1        0.0002
     14 C         140.5734  144.3706  163.1820 C.ar    1  UNL1        0.0030
     15 C         141.2265  143.6217  162.0583 C.ar    1  UNL1        0.0338
     16 H         143.3953  139.8967  157.0059 H       1  UNL1        0.1233
     17 C         142.2478  140.7822  166.5465 C.ar    1  UNL1        0.0536
     18 C         143.2463  141.7873  166.0536 C.ar    1  UNL1        0.0045
     19 C         143.1542  142.3100  164.6506 C.ar    1  UNL1        0.0001
     20 C         142.0637  141.8275  163.7406 C.ar    1  UNL1       -0.0001
     21 C         141.0653  140.8225  164.2335 C.ar    1  UNL1        0.0001
     22 C         141.1574  140.2998  165.6365 C.ar    1  UNL1        0.0045
     23 O         143.1123  139.0053  168.2334 O.2     1  UNL1       -0.2699
     24 C         142.3399  140.2595  167.9495 C.2     1  UNL1        0.2492
     25 N         141.6597  140.9909  169.0685 N.am    1  UNL1       -0.2709
     26 C         140.8873  142.2451  168.7845 C.3     1  UNL1        0.1258
     27 C         140.2071  142.9765  169.9036 C.3     1  UNL1        0.1637
     28 O         140.2992  142.4538  171.3065 O.3     1  UNL1       -0.3501
     29 C         141.0715  141.1997  171.5905 C.3     1  UNL1        0.1637
     30 C         141.7517  140.4682  170.4714 C.3     1  UNL1        0.1258
@<TRIPOS>BOND
     1    23    24    2
     2    24    17    1
     3    17    18   ar
     4    18    19   ar
     5    19    20   ar
     6    20     1    1
     7     1     2    2
     8     2     3    1
     9     3     4    1
    10     4     5    1
    11     5     6    1
    12     6     7    1
    13     7     8    1
    14     3     9    1
    15     9    10    1
    16    10    11   ar
    17    11    12   ar
    18    12    13   ar
    19    13    14   ar
    20    14    15   ar
    21    20    21   ar
    22    21    22   ar
    23    24    25   am
    24    25    26    1
    25    26    27    1
    26    27    28    1
    27    28    29    1
    28    29    30    1
    29    22    17   ar
    30    30    25    1
    31    15     1    1
    32     8     3    1
    33    15    10   ar
    34     6    16    1
@<TRIPOS>MOLECULE
*****
 30 34 0 0 0
SMALL
GASTEIGER

@<TRIPOS>ATOM
      1 C         141.0941  140.2681  161.6814 C.2     1  UNL1        0.0020
      2 C         142.4419  140.9247  161.7306 C.2     1  UNL1        0.0130
      3 C         143.3815  140.6248  162.8608 C.3     1  UNL1        0.1542
      4 C         143.7897  141.5812  161.7798 C.3     1  UNL1        0.0614
      5 C         145.1375  142.2378  161.8290 C.3     1  UNL1        0.0725
      6 N         146.0770  141.9378  162.9592 N.3     1  UNL1       -0.2972
      7 C         145.6688  140.9814  164.0401 C.3     1  UNL1        0.0725
      8 C         144.3211  140.3248  163.9909 C.3     1  UNL1        0.0614
      9 O         142.9733  139.6682  163.9417 O.3     1  UNL1       -0.4785
     10 C         141.6255  139.0117  163.8925 C.ar    1  UNL1        0.1386
     11 C         141.2173  138.0552  164.9735 C.ar    1  UNL1        0.0369
     12 C         139.8695  137.3986  164.9243 C.ar    1  UNL1        0.0031
     13 C         138.9299  137.6986  163.7942 C.ar    1  UNL1        0.0002
     14 C         139.3381  138.6550  162.7132 C.ar    1  UNL1        0.0030
     15 C         140.6859  139.3116  162.7624 C.ar    1  UNL1        0.0338
     16 H         146.2827  142.8269  163.4149 H       1  UNL1        0.1233
     17 C         138.2754  141.1679  158.2910 C.ar    1  UNL1        0.0536
     18 C         139.2734  140.0555  158.1615 C.ar    1  UNL1        0.0045
     19 C         140.2130  139.7556  159.2916 C.ar    1  UNL1        0.0001
     20 C         140.1546  140.5680  160.5513 C.ar    1  UNL1       -0.0001
     21 C         139.1566  141.6803  160.6807 C.ar    1  UNL1        0.0001
     22 C         138.2170  141.9802  159.5506 C.ar    1  UNL1        0.0045
     23 O         136.1469  140.5856  156.9197 O.2     1  UNL1       -0.2699
     24 C         137.3358  141.4678  157.1608 C.2     1  UNL1        0.2492
     25 N         137.5852  142.6499  156.2718 N.am    1  UNL1       -0.2709
     26 C         138.7742  143.5322  156.5129 C.3     1  UNL1        0.1258
     27 C         139.0235  144.7143  155.6239 C.3     1  UNL1        0.1637
     28 O         138.0839  145.0142  154.4937 O.3     1  UNL1       -0.3501
     29 C         136.8950  144.1320  154.2526 C.3     1  UNL1        0.1637
     30 C         136.6456  142.9499  155.1417 C.3     1  UNL1        0.1258
@<TRIPOS>BOND
     1    23    24    2
     2    24    17    1
     3    17    18   ar
     4    18    19   ar
     5    19    20   ar
     6    20     1    1
     7     1     2    2
     8     2     3    1
     9     3     4    1
    10     4     5    1
    11     5     6    1
    12     6     7    1
    13     7     8    1
    14     3     9    1
    15     9    10    1
    16    10    11   ar
    17    11    12   ar
    18    12    13   ar
    19    13    14   ar
    20    14    15   ar
    21    20    21   ar
    22    21    22   ar
    23    24    25   am
    24    25    26    1
    25    26    27    1
    26    27    28    1
    27    28    29    1
    28    29    30    1
    29    22    17   ar
    30    30    25    1
    31    15     1    1
    32     8     3    1
    33    15    10   ar
    34     6    16    1
@<TRIPOS>MOLECULE
*****
 30 34 0 0 0
SMALL
GASTEIGER

@<TRIPOS>ATOM
      1 C         141.9268  142.2194  162.5248 C.2     1  UNL1        0.0020
      2 C         141.2054  143.5008  162.2285 C.2     1  UNL1        0.0130
      3 C         141.1041  143.9950  160.8158 C.3     1  UNL1        0.1542
      4 C         140.4841  144.7821  161.9321 C.3     1  UNL1        0.0614
      5 C         139.7628  146.0634  161.6357 C.3     1  UNL1        0.0725
      6 N         139.6615  146.5576  160.2231 N.3     1  UNL1       -0.2972
      7 C         140.2814  145.7705  159.1068 C.3     1  UNL1        0.0725
      8 C         141.0027  144.4892  159.4032 C.3     1  UNL1        0.0614
      9 O         141.7241  143.2078  159.6996 O.3     1  UNL1       -0.4785
     10 C         142.4454  141.9265  159.9960 C.ar    1  UNL1        0.1386
     11 C         143.0654  141.1393  158.8797 C.ar    1  UNL1        0.0369
     12 C         143.7867  139.8579  159.1761 C.ar    1  UNL1        0.0031
     13 C         143.8880  139.3638  160.5887 C.ar    1  UNL1        0.0002
     14 C         143.2681  140.1509  161.7049 C.ar    1  UNL1        0.0030
     15 C         142.5467  141.4323  161.4086 C.ar    1  UNL1        0.0338
     16 H         140.0893  147.4834  160.2036 H       1  UNL1        0.1233
     17 C         142.2309  140.7369  166.7627 C.ar    1  UNL1        0.0536
     18 C         141.1475  140.2198  165.8632 C.ar    1  UNL1        0.0045
     19 C         141.0462  140.7140  164.4505 C.ar    1  UNL1        0.0001
     20 C         142.0282  141.7252  163.9374 C.ar    1  UNL1       -0.0001
     21 C         143.1114  142.2422  164.8370 C.ar    1  UNL1        0.0001
     22 C         143.2128  141.7481  166.2496 C.ar    1  UNL1        0.0045
     23 O         143.1172  139.0016  168.4812 O.2     1  UNL1       -0.2699
     24 C         142.3322  140.2427  168.1753 C.2     1  UNL1        0.2492
     25 N         141.6487  140.9896  169.2820 N.am    1  UNL1       -0.2709
     26 C         140.8637  142.2307  168.9762 C.3     1  UNL1        0.1258
     27 C         140.1801  142.9776  170.0829 C.3     1  UNL1        0.1637
     28 O         140.2815  142.4834  171.4955 O.3     1  UNL1       -0.3501
     29 C         141.0664  141.2423  171.8014 C.3     1  UNL1        0.1637
     30 C         141.7500  140.4954  170.6947 C.3     1  UNL1        0.1258
@<TRIPOS>BOND
     1    23    24    2
     2    24    17    1
     3    17    18   ar
     4    18    19   ar
     5    19    20   ar
     6    20     1    1
     7     1     2    2
     8     2     3    1
     9     3     4    1
    10     4     5    1
    11     5     6    1
    12     6     7    1
    13     7     8    1
    14     3     9    1
    15     9    10    1
    16    10    11   ar
    17    11    12   ar
    18    12    13   ar
    19    13    14   ar
    20    14    15   ar
    21    20    21   ar
    22    21    22   ar
    23    24    25   am
    24    25    26    1
    25    26    27    1
    26    27    28    1
    27    28    29    1
    28    29    30    1
    29    22    17   ar
    30    30    25    1
    31    15     1    1
    32     8     3    1
    33    15    10   ar
    34     6    16    1
@<TRIPOS>MOLECULE
*****
 30 34 0 0 0
SMALL
GASTEIGER

@<TRIPOS>ATOM
      1 C         140.0655  141.8753  161.1171 C.2     1  UNL1        0.0020
      2 C         140.5941  140.4809  161.2787 C.2     1  UNL1        0.0130
      3 C         140.3722  139.7389  162.5633 C.3     1  UNL1        0.1542
      4 C         141.1227  139.0865  161.4404 C.3     1  UNL1        0.0614
      5 C         141.6513  137.6921  161.6020 C.3     1  UNL1        0.0725
      6 N         141.4294  136.9501  162.8866 N.3     1  UNL1       -0.2972
      7 C         140.6789  137.6024  164.0095 C.3     1  UNL1        0.0725
      8 C         140.1503  138.9968  163.8479 C.3     1  UNL1        0.0614
      9 O         139.6217  140.3913  163.6863 O.3     1  UNL1       -0.4785
     10 C         139.0931  141.7857  163.5247 C.ar    1  UNL1        0.1386
     11 C         138.3425  142.4382  164.6477 C.ar    1  UNL1        0.0369
     12 C         137.8139  143.8326  164.4860 C.ar    1  UNL1        0.0031
     13 C         138.0358  144.5746  163.2014 C.ar    1  UNL1        0.0002
     14 C         138.7863  143.9222  162.0785 C.ar    1  UNL1        0.0030
     15 C         139.3150  142.5277  162.2401 C.ar    1  UNL1        0.0338
     16 H         142.3513  136.7082  163.2499 H       1  UNL1        0.1233
     17 C         140.7312  144.1014  157.2633 C.ar    1  UNL1        0.0536
     18 C         141.6711  144.2989  158.4156 C.ar    1  UNL1        0.0045
     19 C         141.4492  143.5569  159.7001 C.ar    1  UNL1        0.0001
     20 C         140.2874  142.6174  159.8325 C.ar    1  UNL1       -0.0001
     21 C         139.3475  142.4199  158.6804 C.ar    1  UNL1        0.0001
     22 C         139.5694  143.1619  157.3958 C.ar    1  UNL1        0.0045
     23 O         141.8078  144.2415  154.9030 O.2     1  UNL1       -0.2699
     24 C         140.9531  144.8434  155.9787 C.2     1  UNL1        0.2492
     25 N         140.3203  146.1872  155.7699 N.am    1  UNL1       -0.2709
     26 C         139.4655  146.7891  156.8457 C.3     1  UNL1        0.1258
     27 C         138.8328  148.1329  156.6368 C.3     1  UNL1        0.1637
     28 O         139.0547  148.8750  155.3523 O.3     1  UNL1       -0.3501
     29 C         139.9093  148.2731  154.2765 C.3     1  UNL1        0.1637
     30 C         140.5422  146.9292  154.4853 C.3     1  UNL1        0.1258
@<TRIPOS>BOND
     1    23    24    2
     2    24    17    1
     3    17    18   ar
     4    18    19   ar
     5    19    20   ar
     6    20     1    1
     7     1     2    2
     8     2     3    1
     9     3     4    1
    10     4     5    1
    11     5     6    1
    12     6     7    1
    13     7     8    1
    14     3     9    1
    15     9    10    1
    16    10    11   ar
    17    11    12   ar
    18    12    13   ar
    19    13    14   ar
    20    14    15   ar
    21    20    21   ar
    22    21    22   ar
    23    24    25   am
    24    25    26    1
    25    26    27    1
    26    27    28    1
    27    28    29    1
    28    29    30    1
    29    22    17   ar
    30    30    25    1
    31    15     1    1
    32     8     3    1
    33    15    10   ar
    34     6    16    1
@<TRIPOS>MOLECULE
*****
 30 34 0 0 0
SMALL
GASTEIGER

@<TRIPOS>ATOM
      1 C         142.2633  141.6362  163.4023 C.2     1  UNL1        0.0020
      2 C         142.7768  140.6077  164.3660 C.2     1  UNL1        0.0130
      3 C         142.3001  140.6086  165.7883 C.3     1  UNL1        0.1542
      4 C         143.2902  139.5793  165.3297 C.3     1  UNL1        0.0614
      5 C         143.8036  138.5509  166.2934 C.3     1  UNL1        0.0725
      6 N         143.3270  138.5518  167.7157 N.3     1  UNL1       -0.2972
      7 C         142.3369  139.5810  168.1742 C.3     1  UNL1        0.0725
      8 C         141.8234  140.6094  167.2105 C.3     1  UNL1        0.0614
      9 O         141.3100  141.6379  166.2468 O.3     1  UNL1       -0.4785
     10 C         140.7965  142.6663  165.2831 C.ar    1  UNL1        0.1386
     11 C         139.8064  143.6956  165.7416 C.ar    1  UNL1        0.0369
     12 C         139.2930  144.7240  164.7779 C.ar    1  UNL1        0.0031
     13 C         139.7696  144.7231  163.3557 C.ar    1  UNL1        0.0002
     14 C         140.7597  143.6939  162.8971 C.ar    1  UNL1        0.0030
     15 C         141.2732  142.6654  163.8608 C.ar    1  UNL1        0.0338
     16 H         144.1541  138.6565  168.3033 H       1  UNL1        0.1233
     17 C         143.6933  141.6336  159.1356 C.ar    1  UNL1        0.0536
     18 C         142.4523  140.8792  159.5111 C.ar    1  UNL1        0.0045
     19 C         141.9756  140.8801  160.9333 C.ar    1  UNL1        0.0001
     20 C         142.7400  141.6353  161.9800 C.ar    1  UNL1       -0.0001
     21 C         143.9809  142.3896  161.6045 C.ar    1  UNL1        0.0001
     22 C         144.4576  142.3888  160.1822 C.ar    1  UNL1        0.0045
     23 O         145.1071  140.5626  157.2370 O.2     1  UNL1       -0.2699
     24 C         144.1700  141.6328  157.7133 C.2     1  UNL1        0.2492
     25 N         143.7096  142.7019  156.7674 N.am    1  UNL1       -0.2709
     26 C         142.7725  143.7720  157.2436 C.3     1  UNL1        0.1258
     27 C         142.3121  144.8412  156.2977 C.3     1  UNL1        0.1637
     28 O         142.7888  144.8404  154.8755 O.3     1  UNL1       -0.3501
     29 C         143.7258  143.7703  154.3992 C.3     1  UNL1        0.1637
     30 C         144.1863  142.7011  155.3451 C.3     1  UNL1        0.1258
@<TRIPOS>BOND
     1    23    24    2
     2    24    17    1
     3    17    18   ar
     4    18    19   ar
     5    19    20   ar
     6    20     1    1
     7     1     2    2
     8     2     3    1
     9     3     4    1
    10     4     5    1
    11     5     6    1
    12     6     7    1
    13     7     8    1
    14     3     9    1
    15     9    10    1
    16    10    11   ar
    17    11    12   ar
    18    12    13   ar
    19    13    14   ar
    20    14    15   ar
    21    20    21   ar
    22    21    22   ar
    23    24    25   am
    24    25    26    1
    25    26    27    1
    26    27    28    1
    27    28    29    1
    28    29    30    1
    29    22    17   ar
    30    30    25    1
    31    15     1    1
    32     8     3    1
    33    15    10   ar
    34     6    16    1
@<TRIPOS>MOLECULE
*****
 30 34 0 0 0
SMALL
GASTEIGER

@<TRIPOS>ATOM
      1 C         140.4823  140.6301  163.1236 C.2     1  UNL1        0.0020
      2 C         141.3684  139.8554  164.0536 C.2     1  UNL1        0.0130
      3 C         141.5533  140.3146  165.4695 C.3     1  UNL1        0.1542
      4 C         142.2545  139.0809  164.9835 C.3     1  UNL1        0.0614
      5 C         143.1406  138.3063  165.9135 C.3     1  UNL1        0.0725
      6 N         143.3255  138.7655  167.3295 N.3     1  UNL1       -0.2972
      7 C         142.6243  139.9992  167.8155 C.3     1  UNL1        0.0725
      8 C         141.7382  140.7738  166.8855 C.3     1  UNL1        0.0614
      9 O         140.8521  141.5484  165.9555 O.3     1  UNL1       -0.4785
     10 C         139.9660  142.3230  165.0256 C.ar    1  UNL1        0.1386
     11 C         139.2648  143.5568  165.5115 C.ar    1  UNL1        0.0369
     12 C         138.3787  144.3313  164.5816 C.ar    1  UNL1        0.0031
     13 C         138.1938  143.8722  163.1656 C.ar    1  UNL1        0.0002
     14 C         138.8950  142.6384  162.6796 C.ar    1  UNL1        0.0030
     15 C         139.7811  141.8638  163.6096 C.ar    1  UNL1        0.0338
     16 H         144.3246  138.9242  167.4595 H       1  UNL1        0.1233
     17 C         139.9276  139.2526  158.8757 C.ar    1  UNL1        0.0536
     18 C         139.2174  138.5459  159.9921 C.ar    1  UNL1        0.0045
     19 C         139.4023  139.0051  161.4081 C.ar    1  UNL1        0.0001
     20 C         140.2974  140.1709  161.7076 C.ar    1  UNL1       -0.0001
     21 C         141.0075  140.8775  160.5912 C.ar    1  UNL1        0.0001
     22 C         140.8226  140.4184  159.1753 C.ar    1  UNL1        0.0045
     23 O         138.5445  139.2416  156.6763 O.2     1  UNL1       -0.2699
     24 C         139.7427  138.7934  157.4597 C.2     1  UNL1        0.2492
     25 N         140.7559  137.8862  156.8271 N.am    1  UNL1       -0.2709
     26 C         141.9541  137.4380  157.6104 C.3     1  UNL1        0.1258
     27 C         142.9673  136.5308  156.9778 C.3     1  UNL1        0.1637
     28 O         142.7824  136.0716  155.5619 O.3     1  UNL1       -0.3501
     29 C         141.5843  136.5197  154.7785 C.3     1  UNL1        0.1637
     30 C         140.5710  137.4270  155.4111 C.3     1  UNL1        0.1258
@<TRIPOS>BOND
     1    23    24    2
     2    24    17    1
     3    17    18   ar
     4    18    19   ar
     5    19    20   ar
     6    20     1    1
     7     1     2    2
     8     2     3    1
     9     3     4    1
    10     4     5    1
    11     5     6    1
    12     6     7    1
    13     7     8    1
    14     3     9    1
    15     9    10    1
    16    10    11   ar
    17    11    12   ar
    18    12    13   ar
    19    13    14   ar
    20    14    15   ar
    21    20    21   ar
    22    21    22   ar
    23    24    25   am
    24    25    26    1
    25    26    27    1
    26    27    28    1
    27    28    29    1
    28    29    30    1
    29    22    17   ar
    30    30    25    1
    31    15     1    1
    32     8     3    1
    33    15    10   ar
    34     6    16    1
