@<TRIPOS>MOLECULE
*****
 45 48 0 0 0
SMALL
GASTEIGER

@<TRIPOS>ATOM
      1 C         141.2436  140.5399  163.6648 C.3     1  UNL1        0.0823
      2 C         141.6872  140.9158  165.0476 C.ar    1  UNL1        0.0375
      3 C         140.8783  141.8854  165.8571 C.ar    1  UNL1        0.0023
      4 C         141.3219  142.2614  167.2399 C.ar    1  UNL1        0.0183
      5 C         140.5130  143.2310  168.0494 C.ar    1  UNL1        0.0118
      6 C         140.9566  143.6069  169.4321 C.ar    1  UNL1        0.0685
      7 C         142.2091  143.0131  170.0053 C.ar    1  UNL1        0.0118
      8 C         143.0181  142.0434  169.1958 C.ar    1  UNL1        0.0199
      9 C         142.5745  141.6676  167.8131 C.ar    1  UNL1        0.0844
     10 N         143.3834  140.6979  167.0035 N.ar    1  UNL1       -0.2119
     11 C         142.9398  140.3220  165.6208 C.ar    1  UNL1        0.2211
     12 C         140.1476  144.5765  170.2417 C.1     1  UNL1        0.1004
     13 N         139.3387  145.5462  171.0513 N.1     1  UNL1       -0.1908
     14 O         143.7488  139.3523  164.8112 O.3     1  UNL1       -0.4563
     15 C         145.1057  139.7453  164.3068 C.3     1  UNL1        0.2542
     16 C         141.9252  141.1380  162.4700 C.ar    1  UNL1        0.0405
     17 C         141.8094  142.6087  162.1985 C.ar    1  UNL1        0.0393
     18 C         142.4909  143.2068  161.0037 C.ar    1  UNL1        0.1574
     19 C         143.2884  142.3342  160.0802 C.ar    1  UNL1        0.1388
     20 N         143.4042  140.8635  160.3517 N.ar    1  UNL1       -0.2072
     21 C         142.7226  140.2654  161.5466 C.ar    1  UNL1        0.2213
     22 O         142.8384  138.7947  161.8180 O.3     1  UNL1       -0.4563
     23 C         143.8099  137.9619  161.0355 C.3     1  UNL1        0.2542
     24 O         142.3751  144.6775  160.7323 O.3     1  UNL1       -0.4776
     25 C         141.0348  145.2819  160.4346 C.3     1  UNL1        0.1662
     26 C         140.5360  145.3410  159.0212 C.3     1  UNL1        0.0472
     27 C         140.1936  145.8272  161.5503 C.3     1  UNL1        0.0472
     28 C         140.1185  139.5659  163.4770 C.3     1  UNL1        0.1163
     29 O         140.8946  138.5246  164.2275 O.3     1  UNL1       -0.3820
     30 H         140.3759  137.7063  164.2748 H       1  UNL1        0.2107
     31 C         138.0354  142.8524  162.6962 C.ar    1  UNL1        0.2272
     32 C         138.8116  141.8111  163.4467 C.ar    1  UNL1        0.0559
     33 C         139.3423  140.6072  162.7265 C.ar    1  UNL1        0.0117
     34 C         139.0970  140.4446  161.2557 C.ar    1  UNL1        0.0559
     35 C         138.3209  141.4859  160.5051 C.ar    1  UNL1        0.2272
     36 N         137.7901  142.6898  161.2254 N.ar    1  UNL1       -0.1767
     37 C         138.0675  144.4392  164.7532 C.3     1  UNL1        0.2542
     38 O         137.5046  144.0563  163.4165 O.3     1  UNL1       -0.4561
     39 O         138.0755  141.3232  159.0342 O.3     1  UNL1       -0.4561
     40 C         138.2244  142.4988  158.1145 C.3     1  UNL1        0.2542
     41 C         138.9933  138.5918  163.2892 C.3     1  UNL1        0.0491
     42 C         138.7197  137.5514  164.3344 C.3     1  UNL1        0.0750
     43 N         138.1737  137.9568  165.6714 N.3     1  UNL1       -0.2702
     44 C         138.1229  139.4067  166.0524 C.3     1  UNL1        0.0897
     45 C         137.6784  136.9124  166.6273 C.3     1  UNL1        0.0897
@<TRIPOS>BOND
     1    37    38    1
     2    38    31    1
     3    31    32   ar
     4    32    33   ar
     5    33    28    1
     6    28    29    1
     7    28    41    1
     8    41    42    1
     9    42    43    1
    10    43    44    1
    11    43    45    1
    12    28     1    1
    13     1    16    1
    14    16    17   ar
    15    17    18   ar
    16    18    24    1
    17    24    25    1
    18    25    26    1
    19    25    27    1
    20    18    19   ar
    21    19    20   ar
    22    20    21   ar
    23    21    22    1
    24    22    23    1
    25     1     2    1
    26     2     3   ar
    27     3     4   ar
    28     4     5   ar
    29     5     6   ar
    30     6    12    1
    31    12    13    3
    32     6     7   ar
    33     7     8   ar
    34     8     9   ar
    35     9    10   ar
    36    10    11   ar
    37    11    14    1
    38    14    15    1
    39    33    34   ar
    40    34    35   ar
    41    35    39    1
    42    39    40    1
    43    35    36   ar
    44    36    31   ar
    45    21    16   ar
    46    11     2   ar
    47     9     4   ar
    48    29    30    1
@<TRIPOS>MOLECULE
*****
 45 48 0 0 0
SMALL
GASTEIGER

@<TRIPOS>ATOM
      1 C         141.3642  140.5866  163.1288 C.3     1  UNL1        0.0823
      2 C         141.8716  141.0526  164.4613 C.ar    1  UNL1        0.0375
      3 C         140.9029  141.4306  165.5423 C.ar    1  UNL1        0.0023
      4 C         141.4103  141.8966  166.8748 C.ar    1  UNL1        0.0183
      5 C         140.4416  142.2747  167.9558 C.ar    1  UNL1        0.0118
      6 C         140.9490  142.7406  169.2882 C.ar    1  UNL1        0.0685
      7 C         142.4252  142.8286  169.5396 C.ar    1  UNL1        0.0118
      8 C         143.3939  142.4506  168.4586 C.ar    1  UNL1        0.0199
      9 C         142.8865  141.9846  167.1262 C.ar    1  UNL1        0.0844
     10 N         143.8552  141.6066  166.0451 N.ar    1  UNL1       -0.2119
     11 C         143.3478  141.1406  164.7127 C.ar    1  UNL1        0.2211
     12 C         139.9803  143.1187  170.3693 C.1     1  UNL1        0.1004
     13 N         139.0116  143.4967  171.4504 N.1     1  UNL1       -0.1908
     14 O         144.3165  140.7626  163.6316 O.3     1  UNL1       -0.4563
     15 C         145.6698  141.4073  163.5782 C.3     1  UNL1        0.2542
     16 C         142.0163  141.0695  161.8673 C.ar    1  UNL1        0.0405
     17 C         142.0047  142.5308  161.5289 C.ar    1  UNL1        0.0393
     18 C         142.6569  143.0136  160.2674 C.ar    1  UNL1        0.1574
     19 C         143.3206  142.0352  159.3442 C.ar    1  UNL1        0.1388
     20 N         143.3322  140.5739  159.6826 N.ar    1  UNL1       -0.2072
     21 C         142.6800  140.0911  160.9442 C.ar    1  UNL1        0.2213
     22 O         142.6916  138.6298  161.2826 O.3     1  UNL1       -0.4563
     23 C         143.9857  137.8714  161.2879 C.3     1  UNL1        0.2542
     24 O         142.6453  144.4749  159.9289 O.3     1  UNL1       -0.4776
     25 C         141.4899  145.0604  159.1723 C.3     1  UNL1        0.1662
     26 C         140.1732  145.2713  159.8592 C.3     1  UNL1        0.0472
     27 C         141.6513  145.4349  157.7288 C.3     1  UNL1        0.0472
     28 C         140.2046  139.6377  163.0580 C.3     1  UNL1        0.1163
     29 O         141.0110  138.5984  163.7788 O.3     1  UNL1       -0.3820
     30 H         140.4779  137.7959  163.8910 H       1  UNL1        0.2107
     31 C         138.3278  141.5746  160.1466 C.ar    1  UNL1        0.2272
     32 C         139.1342  140.5353  160.8675 C.ar    1  UNL1        0.0559
     33 C         139.3982  140.6770  162.3372 C.ar    1  UNL1        0.0117
     34 C         138.8558  141.8580  163.0861 C.ar    1  UNL1        0.0559
     35 C         138.0494  142.8973  162.3653 C.ar    1  UNL1        0.2272
     36 N         137.7853  142.7556  160.8956 N.ar    1  UNL1       -0.1767
     37 C         138.0787  142.6439  157.7919 C.3     1  UNL1        0.2542
     38 O         138.0638  141.4328  158.6768 O.3     1  UNL1       -0.4561
     39 O         137.5069  144.0784  163.1143 O.3     1  UNL1       -0.4561
     40 C         137.9646  144.3520  164.5163 C.3     1  UNL1        0.2542
     41 C         139.0450  138.6888  162.9871 C.3     1  UNL1        0.0491
     42 C         138.8581  137.6520  164.0548 C.3     1  UNL1        0.0750
     43 N         138.2963  138.0427  165.3896 N.3     1  UNL1       -0.2702
     44 C         138.1186  139.4919  165.7334 C.3     1  UNL1        0.0897
     45 C         137.9122  136.9843  166.3806 C.3     1  UNL1        0.0897
@<TRIPOS>BOND
     1    37    38    1
     2    38    31    1
     3    31    32   ar
     4    32    33   ar
     5    33    28    1
     6    28    29    1
     7    28    41    1
     8    41    42    1
     9    42    43    1
    10    43    44    1
    11    43    45    1
    12    28     1    1
    13     1    16    1
    14    16    17   ar
    15    17    18   ar
    16    18    24    1
    17    24    25    1
    18    25    26    1
    19    25    27    1
    20    18    19   ar
    21    19    20   ar
    22    20    21   ar
    23    21    22    1
    24    22    23    1
    25     1     2    1
    26     2     3   ar
    27     3     4   ar
    28     4     5   ar
    29     5     6   ar
    30     6    12    1
    31    12    13    3
    32     6     7   ar
    33     7     8   ar
    34     8     9   ar
    35     9    10   ar
    36    10    11   ar
    37    11    14    1
    38    14    15    1
    39    33    34   ar
    40    34    35   ar
    41    35    39    1
    42    39    40    1
    43    35    36   ar
    44    36    31   ar
    45    21    16   ar
    46    11     2   ar
    47     9     4   ar
    48    29    30    1
@<TRIPOS>MOLECULE
*****
 45 48 0 0 0
SMALL
GASTEIGER

@<TRIPOS>ATOM
      1 C         141.8610  140.9662  162.4035 C.3     1  UNL1        0.0823
      2 C         141.6270  140.7243  163.8653 C.ar    1  UNL1        0.0375
      3 C         141.3337  141.8772  164.7788 C.ar    1  UNL1        0.0023
      4 C         141.0997  141.6353  166.2406 C.ar    1  UNL1        0.0183
      5 C         140.8064  142.7882  167.1541 C.ar    1  UNL1        0.0118
      6 C         140.5724  142.5462  168.6158 C.ar    1  UNL1        0.0685
      7 C         140.6317  141.1512  169.1640 C.ar    1  UNL1        0.0118
      8 C         140.9250  139.9983  168.2505 C.ar    1  UNL1        0.0199
      9 C         141.1590  140.2403  166.7888 C.ar    1  UNL1        0.0844
     10 N         141.4523  139.0873  165.8752 N.ar    1  UNL1       -0.2119
     11 C         141.6863  139.3293  164.4135 C.ar    1  UNL1        0.2211
     12 C         140.2791  143.6992  169.5294 C.1     1  UNL1        0.1004
     13 N         139.9858  144.8522  170.4430 N.1     1  UNL1       -0.1908
     14 O         141.9796  138.1763  163.4998 O.3     1  UNL1       -0.4563
     15 C         140.9754  137.0739  163.3373 C.3     1  UNL1        0.2542
     16 C         141.1509  140.1288  161.3816 C.ar    1  UNL1        0.0405
     17 C         141.9370  139.3939  160.3366 C.ar    1  UNL1        0.0393
     18 C         141.2269  138.5564  159.3147 C.ar    1  UNL1        0.1574
     19 C         139.7305  138.4539  159.3377 C.ar    1  UNL1        0.1388
     20 N         138.9444  139.1888  160.3826 N.ar    1  UNL1       -0.2072
     21 C         139.6546  140.0263  161.4045 C.ar    1  UNL1        0.2213
     22 O         138.8684  140.7612  162.4494 O.3     1  UNL1       -0.4563
     23 C         138.0885  139.9963  163.4773 C.3     1  UNL1        0.2542
     24 O         142.0131  137.8215  158.2698 O.3     1  UNL1       -0.4776
     25 C         142.4262  138.5236  157.0102 C.3     1  UNL1        0.1662
     26 C         141.9330  139.9120  156.7292 C.3     1  UNL1        0.0472
     27 C         143.3326  137.8372  156.0318 C.3     1  UNL1        0.0472
     28 C         142.8051  142.0457  161.9637 C.3     1  UNL1        0.1163
     29 O         143.9368  141.3322  162.6421 O.3     1  UNL1       -0.3820
     30 H         144.7564  141.8365  162.5202 H       1  UNL1        0.2107
     31 C         139.4786  144.1421  161.4264 C.ar    1  UNL1        0.2272
     32 C         140.6103  143.4286  162.1048 C.ar    1  UNL1        0.0559
     33 C         141.6734  142.7592  161.2854 C.ar    1  UNL1        0.0117
     34 C         141.6049  142.8032  159.7876 C.ar    1  UNL1        0.0559
     35 C         140.4732  143.5167  159.1093 C.ar    1  UNL1        0.2272
     36 N         139.4100  144.1862  159.9287 N.ar    1  UNL1       -0.1767
     37 C         137.9145  144.1604  163.5009 C.3     1  UNL1        0.2542
     38 O         138.4154  144.8116  162.2459 O.3     1  UNL1       -0.4561
     39 O         140.4047  143.5608  157.6114 O.3     1  UNL1       -0.4561
     40 C         140.0480  144.8401  156.9143 C.3     1  UNL1        0.2542
     41 C         143.7493  143.1251  161.5239 C.3     1  UNL1        0.0491
     42 C         144.5947  143.8401  162.5358 C.3     1  UNL1        0.0750
     43 N         144.0009  144.2581  163.8484 N.3     1  UNL1       -0.2702
     44 C         142.9209  145.2984  163.8856 C.3     1  UNL1        0.0897
     45 C         144.4871  143.6357  165.1236 C.3     1  UNL1        0.0897
@<TRIPOS>BOND
     1    37    38    1
     2    38    31    1
     3    31    32   ar
     4    32    33   ar
     5    33    28    1
     6    28    29    1
     7    28    41    1
     8    41    42    1
     9    42    43    1
    10    43    44    1
    11    43    45    1
    12    28     1    1
    13     1    16    1
    14    16    17   ar
    15    17    18   ar
    16    18    24    1
    17    24    25    1
    18    25    26    1
    19    25    27    1
    20    18    19   ar
    21    19    20   ar
    22    20    21   ar
    23    21    22    1
    24    22    23    1
    25     1     2    1
    26     2     3   ar
    27     3     4   ar
    28     4     5   ar
    29     5     6   ar
    30     6    12    1
    31    12    13    3
    32     6     7   ar
    33     7     8   ar
    34     8     9   ar
    35     9    10   ar
    36    10    11   ar
    37    11    14    1
    38    14    15    1
    39    33    34   ar
    40    34    35   ar
    41    35    39    1
    42    39    40    1
    43    35    36   ar
    44    36    31   ar
    45    21    16   ar
    46    11     2   ar
    47     9     4   ar
    48    29    30    1
@<TRIPOS>MOLECULE
*****
 45 48 0 0 0
SMALL
GASTEIGER

@<TRIPOS>ATOM
      1 C         140.5243  142.2519  162.8487 C.3     1  UNL1        0.0823
      2 C         141.1335  142.2096  164.2189 C.ar    1  UNL1        0.0375
      3 C         140.4121  141.5213  165.3394 C.ar    1  UNL1        0.0023
      4 C         141.0212  141.4790  166.7096 C.ar    1  UNL1        0.0183
      5 C         140.2998  140.7907  167.8302 C.ar    1  UNL1        0.0118
      6 C         140.9090  140.7484  169.2002 C.ar    1  UNL1        0.0685
      7 C         142.2395  141.3945  169.4497 C.ar    1  UNL1        0.0118
      8 C         142.9609  142.0828  168.3291 C.ar    1  UNL1        0.0199
      9 C         142.3518  142.1251  166.9591 C.ar    1  UNL1        0.0844
     10 N         143.0732  142.8134  165.8384 N.ar    1  UNL1       -0.2119
     11 C         142.4640  142.8557  164.4683 C.ar    1  UNL1        0.2211
     12 C         140.1876  140.0601  170.3209 C.1     1  UNL1        0.1004
     13 N         139.4663  139.3717  171.4415 N.1     1  UNL1       -0.1908
     14 O         143.1854  143.5440  163.3477 O.3     1  UNL1       -0.4563
     15 C         143.6268  144.9691  163.5033 C.3     1  UNL1        0.2542
     16 C         140.2803  143.5705  162.1768 C.ar    1  UNL1        0.0405
     17 C         141.0967  143.9661  160.9822 C.ar    1  UNL1        0.0393
     18 C         140.8526  145.2847  160.3103 C.ar    1  UNL1        0.1574
     19 C         139.7921  146.2079  160.8330 C.ar    1  UNL1        0.1388
     20 N         138.9757  145.8124  162.0275 N.ar    1  UNL1       -0.2072
     21 C         139.2198  144.4936  162.6995 C.ar    1  UNL1        0.2213
     22 O         138.4034  144.0981  163.8940 O.3     1  UNL1       -0.4563
     23 C         138.6117  144.7914  165.2077 C.3     1  UNL1        0.2542
     24 O         141.6690  145.6803  159.1157 O.3     1  UNL1       -0.4776
     25 C         141.2638  145.2232  157.7457 C.3     1  UNL1        0.1662
     26 C         139.9989  144.4385  157.5605 C.3     1  UNL1        0.0472
     27 C         142.1234  145.5509  156.5609 C.3     1  UNL1        0.0472
     28 C         140.1593  140.9754  162.1506 C.3     1  UNL1        0.1163
     29 O         138.7107  141.2272  162.4476 O.3     1  UNL1       -0.3820
     30 H         138.1759  140.5033  162.0859 H       1  UNL1        0.2107
     31 C         143.9310  139.8205  162.5865 C.ar    1  UNL1        0.2272
     32 C         142.4825  140.0723  162.8835 C.ar    1  UNL1        0.0559
     33 C         141.6079  140.7236  161.8535 C.ar    1  UNL1        0.0117
     34 C         142.1819  141.1231  160.5266 C.ar    1  UNL1        0.0559
     35 C         143.6304  140.8712  160.2296 C.ar    1  UNL1        0.2272
     36 N         144.5050  140.2199  161.2595 N.ar    1  UNL1       -0.1767
     37 C         144.3520  139.0904  165.0441 C.3     1  UNL1        0.2542
     38 O         144.8056  139.1691  163.6166 O.3     1  UNL1       -0.4561
     39 O         144.2044  141.2707  158.9025 O.3     1  UNL1       -0.4561
     40 C         144.1652  142.7065  158.4701 C.3     1  UNL1        0.2542
     41 C         139.7943  139.6990  161.4524 C.3     1  UNL1        0.0491
     42 C         138.9602  138.6706  162.1572 C.3     1  UNL1        0.0750
     43 N         139.4424  138.0668  163.4429 N.3     1  UNL1       -0.2702
     44 C         138.7198  138.3565  164.7250 C.3     1  UNL1        0.0897
     45 C         140.6471  137.1731  163.4464 C.3     1  UNL1        0.0897
@<TRIPOS>BOND
     1    37    38    1
     2    38    31    1
     3    31    32   ar
     4    32    33   ar
     5    33    28    1
     6    28    29    1
     7    28    41    1
     8    41    42    1
     9    42    43    1
    10    43    44    1
    11    43    45    1
    12    28     1    1
    13     1    16    1
    14    16    17   ar
    15    17    18   ar
    16    18    24    1
    17    24    25    1
    18    25    26    1
    19    25    27    1
    20    18    19   ar
    21    19    20   ar
    22    20    21   ar
    23    21    22    1
    24    22    23    1
    25     1     2    1
    26     2     3   ar
    27     3     4   ar
    28     4     5   ar
    29     5     6   ar
    30     6    12    1
    31    12    13    3
    32     6     7   ar
    33     7     8   ar
    34     8     9   ar
    35     9    10   ar
    36    10    11   ar
    37    11    14    1
    38    14    15    1
    39    33    34   ar
    40    34    35   ar
    41    35    39    1
    42    39    40    1
    43    35    36   ar
    44    36    31   ar
    45    21    16   ar
    46    11     2   ar
    47     9     4   ar
    48    29    30    1
@<TRIPOS>MOLECULE
*****
 45 48 0 0 0
SMALL
GASTEIGER

@<TRIPOS>ATOM
      1 C         141.6639  141.1306  161.9211 C.3     1  UNL1        0.0823
      2 C         141.1785  140.8332  163.3090 C.ar    1  UNL1        0.0375
      3 C         141.2251  141.8983  164.3641 C.ar    1  UNL1        0.0023
      4 C         140.7397  141.6010  165.7519 C.ar    1  UNL1        0.0183
      5 C         140.7863  142.6661  166.8071 C.ar    1  UNL1        0.0118
      6 C         140.3009  142.3687  168.1948 C.ar    1  UNL1        0.0685
      7 C         139.7689  141.0063  168.5275 C.ar    1  UNL1        0.0118
      8 C         139.7223  139.9412  167.4723 C.ar    1  UNL1        0.0199
      9 C         140.2077  140.2385  166.0846 C.ar    1  UNL1        0.0844
     10 N         140.1611  139.1734  165.0293 N.ar    1  UNL1       -0.2119
     11 C         140.6465  139.4708  163.6416 C.ar    1  UNL1        0.2211
     12 C         140.3475  143.4339  169.2500 C.1     1  UNL1        0.1004
     13 N         140.3941  144.4990  170.3052 N.1     1  UNL1       -0.1908
     14 O         140.5999  138.4057  162.5864 O.3     1  UNL1       -0.4563
     15 C         139.3327  137.6383  162.3508 C.3     1  UNL1        0.2542
     16 C         141.0583  140.4208  160.7466 C.ar    1  UNL1        0.0405
     17 C         139.6416  140.7077  160.3458 C.ar    1  UNL1        0.0393
     18 C         139.0361  139.9980  159.1713 C.ar    1  UNL1        0.1574
     19 C         139.8472  139.0012  158.3976 C.ar    1  UNL1        0.1388
     20 N         141.2639  138.7143  158.7984 N.ar    1  UNL1       -0.2072
     21 C         141.8695  139.4241  159.9729 C.ar    1  UNL1        0.2213
     22 O         143.2862  139.1372  160.3737 O.3     1  UNL1       -0.4563
     23 C         143.6267  137.8425  161.0502 C.3     1  UNL1        0.2542
     24 O         137.6194  140.2849  158.7705 O.3     1  UNL1       -0.4776
     25 C         137.3360  141.2387  157.6480 C.3     1  UNL1        0.1662
     26 C         138.0744  142.5418  157.5666 C.3     1  UNL1        0.0472
     27 C         136.3143  140.8894  156.6069 C.3     1  UNL1        0.0472
     28 C         142.7548  142.1377  161.7078 C.3     1  UNL1        0.1163
     29 O         143.7477  141.1906  162.3138 O.3     1  UNL1       -0.3820
     30 H         144.6268  141.6004  162.3144 H       1  UNL1        0.2107
     31 C         140.8840  144.4153  159.0503 C.ar    1  UNL1        0.2272
     32 C         141.8769  143.4682  159.6563 C.ar    1  UNL1        0.0559
     33 C         141.7620  143.0849  161.1019 C.ar    1  UNL1        0.0117
     34 C         140.6544  143.6488  161.9416 C.ar    1  UNL1        0.0559
     35 C         139.6615  144.5959  161.3356 C.ar    1  UNL1        0.2272
     36 N         139.7764  144.9792  159.8900 N.ar    1  UNL1       -0.1767
     37 C         140.1392  145.8949  157.0488 C.3     1  UNL1        0.2542
     38 O         140.9989  144.7986  157.6046 O.3     1  UNL1       -0.4561
     39 O         138.5538  145.1598  162.1754 O.3     1  UNL1       -0.4561
     40 C         137.7842  144.2647  163.1009 C.3     1  UNL1        0.2542
     41 C         143.8458  143.1448  161.4946 C.3     1  UNL1        0.0491
     42 C         144.7409  143.5335  162.6337 C.3     1  UNL1        0.0750
     43 N         144.1466  144.0167  163.9234 N.3     1  UNL1       -0.2702
     44 C         143.2135  145.1911  163.9258 C.3     1  UNL1        0.0897
     45 C         144.4853  143.3254  165.2108 C.3     1  UNL1        0.0897
@<TRIPOS>BOND
     1    37    38    1
     2    38    31    1
     3    31    32   ar
     4    32    33   ar
     5    33    28    1
     6    28    29    1
     7    28    41    1
     8    41    42    1
     9    42    43    1
    10    43    44    1
    11    43    45    1
    12    28     1    1
    13     1    16    1
    14    16    17   ar
    15    17    18   ar
    16    18    24    1
    17    24    25    1
    18    25    26    1
    19    25    27    1
    20    18    19   ar
    21    19    20   ar
    22    20    21   ar
    23    21    22    1
    24    22    23    1
    25     1     2    1
    26     2     3   ar
    27     3     4   ar
    28     4     5   ar
    29     5     6   ar
    30     6    12    1
    31    12    13    3
    32     6     7   ar
    33     7     8   ar
    34     8     9   ar
    35     9    10   ar
    36    10    11   ar
    37    11    14    1
    38    14    15    1
    39    33    34   ar
    40    34    35   ar
    41    35    39    1
    42    39    40    1
    43    35    36   ar
    44    36    31   ar
    45    21    16   ar
    46    11     2   ar
    47     9     4   ar
    48    29    30    1
@<TRIPOS>MOLECULE
*****
 45 48 0 0 0
SMALL
GASTEIGER

@<TRIPOS>ATOM
      1 C         140.4422  142.2946  162.7246 C.3     1  UNL1        0.0823
      2 C         141.0875  142.2454  164.0779 C.ar    1  UNL1        0.0375
      3 C         140.3864  141.5699  165.2190 C.ar    1  UNL1        0.0023
      4 C         141.0317  141.5207  166.5723 C.ar    1  UNL1        0.0183
      5 C         140.3306  140.8452  167.7133 C.ar    1  UNL1        0.0118
      6 C         140.9759  140.7961  169.0665 C.ar    1  UNL1        0.0685
      7 C         142.3222  141.4225  169.2786 C.ar    1  UNL1        0.0118
      8 C         143.0233  142.0981  168.1376 C.ar    1  UNL1        0.0199
      9 C         142.3780  142.1472  166.7844 C.ar    1  UNL1        0.0844
     10 N         143.0791  142.8228  165.6432 N.ar    1  UNL1       -0.2119
     11 C         142.4338  142.8719  164.2900 C.ar    1  UNL1        0.2211
     12 C         140.2748  140.1205  170.2077 C.1     1  UNL1        0.1004
     13 N         139.5738  139.4449  171.3488 N.1     1  UNL1       -0.1908
     14 O         143.1349  143.5474  163.1488 O.3     1  UNL1       -0.4563
     15 C         144.5372  143.1531  162.7911 C.3     1  UNL1        0.2542
     16 C         140.2530  143.6112  162.0313 C.ar    1  UNL1        0.0405
     17 C         141.0999  143.9621  160.8440 C.ar    1  UNL1        0.0393
     18 C         140.9107  145.2787  160.1506 C.ar    1  UNL1        0.1574
     19 C         139.8747  146.2444  160.6446 C.ar    1  UNL1        0.1388
     20 N         139.0278  145.8935  161.8319 N.ar    1  UNL1       -0.2072
     21 C         139.2170  144.5768  162.5253 C.ar    1  UNL1        0.2213
     22 O         138.3702  144.2259  163.7126 O.3     1  UNL1       -0.4563
     23 C         138.6640  144.8373  165.0504 C.3     1  UNL1        0.2542
     24 O         141.7576  145.6296  158.9633 O.3     1  UNL1       -0.4776
     25 C         141.2437  145.3816  157.5760 C.3     1  UNL1        0.1662
     26 C         141.7712  144.2276  156.7760 C.3     1  UNL1        0.0472
     27 C         140.2025  146.2877  156.9888 C.3     1  UNL1        0.0472
     28 C         139.9862  141.0271  162.0647 C.3     1  UNL1        0.1163
     29 O         138.5654  141.3551  162.4166 O.3     1  UNL1       -0.3820
     30 H         137.9811  140.6530  162.0901 H       1  UNL1        0.2107
     31 C         143.3923  140.8036  160.0404 C.ar    1  UNL1        0.2272
     32 C         141.9716  141.1316  160.3923 C.ar    1  UNL1        0.0559
     33 C         141.4069  140.6990  161.7129 C.ar    1  UNL1        0.0117
     34 C         142.2630  139.9384  162.6816 C.ar    1  UNL1        0.0559
     35 C         143.6838  139.6104  162.3297 C.ar    1  UNL1        0.2272
     36 N         144.2485  140.0430  161.0091 N.ar    1  UNL1       -0.1767
     37 C         144.6298  142.5709  158.5928 C.3     1  UNL1        0.2542
     38 O         143.9570  141.2363  158.7198 O.3     1  UNL1       -0.4561
     39 O         144.5400  138.8497  163.2985 O.3     1  UNL1       -0.4561
     40 C         144.9671  139.4908  164.5856 C.3     1  UNL1        0.2542
     41 C         139.5301  139.7596  161.4048 C.3     1  UNL1        0.0491
     42 C         138.6925  138.7763  162.1675 C.3     1  UNL1        0.0750
     43 N         139.2248  138.1530  163.4237 N.3     1  UNL1       -0.2702
     44 C         138.6024  138.4848  164.7475 C.3     1  UNL1        0.0897
     45 C         140.3794  137.1980  163.3561 C.3     1  UNL1        0.0897
@<TRIPOS>BOND
     1    37    38    1
     2    38    31    1
     3    31    32   ar
     4    32    33   ar
     5    33    28    1
     6    28    29    1
     7    28    41    1
     8    41    42    1
     9    42    43    1
    10    43    44    1
    11    43    45    1
    12    28     1    1
    13     1    16    1
    14    16    17   ar
    15    17    18   ar
    16    18    24    1
    17    24    25    1
    18    25    26    1
    19    25    27    1
    20    18    19   ar
    21    19    20   ar
    22    20    21   ar
    23    21    22    1
    24    22    23    1
    25     1     2    1
    26     2     3   ar
    27     3     4   ar
    28     4     5   ar
    29     5     6   ar
    30     6    12    1
    31    12    13    3
    32     6     7   ar
    33     7     8   ar
    34     8     9   ar
    35     9    10   ar
    36    10    11   ar
    37    11    14    1
    38    14    15    1
    39    33    34   ar
    40    34    35   ar
    41    35    39    1
    42    39    40    1
    43    35    36   ar
    44    36    31   ar
    45    21    16   ar
    46    11     2   ar
    47     9     4   ar
    48    29    30    1
@<TRIPOS>MOLECULE
*****
 45 48 0 0 0
SMALL
GASTEIGER

@<TRIPOS>ATOM
      1 C         141.2643  142.1066  164.4722 C.3     1  UNL1        0.0823
      2 C         142.1178  142.2063  163.2427 C.ar    1  UNL1        0.0375
      3 C         141.8421  141.3201  162.0644 C.ar    1  UNL1        0.0023
      4 C         142.6956  141.4199  160.8348 C.ar    1  UNL1        0.0183
      5 C         142.4198  140.5336  159.6565 C.ar    1  UNL1        0.0118
      6 C         143.2733  140.6334  158.4270 C.ar    1  UNL1        0.0685
      7 C         144.4025  141.6195  158.3759 C.ar    1  UNL1        0.0118
      8 C         144.6783  142.5057  159.5543 C.ar    1  UNL1        0.0199
      9 C         143.8248  142.4059  160.7837 C.ar    1  UNL1        0.0844
     10 N         144.1005  143.2921  161.9621 N.ar    1  UNL1       -0.2119
     11 C         143.2471  143.1923  163.1916 C.ar    1  UNL1        0.2211
     12 C         142.9975  139.7472  157.2486 C.1     1  UNL1        0.1004
     13 N         142.7219  138.8610  156.0703 N.1     1  UNL1       -0.1908
     14 O         143.5228  144.0786  164.3700 O.3     1  UNL1       -0.4563
     15 C         144.6555  143.7590  165.3000 C.3     1  UNL1        0.2542
     16 C         141.8142  141.4774  165.7179 C.ar    1  UNL1        0.0405
     17 C         141.8695  142.2639  166.9939 C.ar    1  UNL1        0.0393
     18 C         142.4193  141.6348  168.2396 C.ar    1  UNL1        0.1574
     19 C         142.9140  140.2190  168.2092 C.ar    1  UNL1        0.1388
     20 N         142.8588  139.4324  166.9332 N.ar    1  UNL1       -0.2072
     21 C         142.3089  140.0617  165.6875 C.ar    1  UNL1        0.2213
     22 O         142.2536  139.2751  164.4115 O.3     1  UNL1       -0.4563
     23 C         141.8959  137.8188  164.4430 C.3     1  UNL1        0.2542
     24 O         142.4746  142.4213  169.5156 O.3     1  UNL1       -0.4776
     25 C         141.2086  142.7463  170.2517 C.3     1  UNL1        0.1662
     26 C         140.7078  141.8260  171.3251 C.3     1  UNL1        0.0472
     27 C         140.4435  143.9916  169.9145 C.3     1  UNL1        0.0472
     28 C         139.8610  142.6360  164.4560 C.3     1  UNL1        0.1163
     29 O         140.3899  144.0344  164.3354 O.3     1  UNL1       -0.3820
     30 H         139.6484  144.6587  164.2996 H       1  UNL1        0.2107
     31 C         138.6442  138.9891  163.4716 C.ar    1  UNL1        0.2272
     32 C         139.1732  140.3875  163.3510 C.ar    1  UNL1        0.0559
     33 C         139.3320  141.2376  164.5766 C.ar    1  UNL1        0.0117
     34 C         138.9618  140.6892  165.9227 C.ar    1  UNL1        0.0559
     35 C         138.4329  139.2907  166.0433 C.ar    1  UNL1        0.2272
     36 N         138.2740  138.4407  164.8177 N.ar    1  UNL1       -0.1767
     37 C         139.5524  138.1363  161.1916 C.3     1  UNL1        0.2542
     38 O         138.4854  138.1390  162.2459 O.3     1  UNL1       -0.4561
     39 O         138.0627  138.7423  167.3896 O.3     1  UNL1       -0.4561
     40 C         137.0103  137.6796  167.5030 C.3     1  UNL1        0.2542
     41 C         138.4576  143.1654  164.4398 C.3     1  UNL1        0.0491
     42 C         138.0896  144.2864  163.5136 C.3     1  UNL1        0.0750
     43 N         138.6812  144.3465  162.1365 N.3     1  UNL1       -0.2702
     44 C         138.5306  143.1813  161.2040 C.3     1  UNL1        0.0897
     45 C         139.4235  145.5718  161.6920 C.3     1  UNL1        0.0897
@<TRIPOS>BOND
     1    37    38    1
     2    38    31    1
     3    31    32   ar
     4    32    33   ar
     5    33    28    1
     6    28    29    1
     7    28    41    1
     8    41    42    1
     9    42    43    1
    10    43    44    1
    11    43    45    1
    12    28     1    1
    13     1    16    1
    14    16    17   ar
    15    17    18   ar
    16    18    24    1
    17    24    25    1
    18    25    26    1
    19    25    27    1
    20    18    19   ar
    21    19    20   ar
    22    20    21   ar
    23    21    22    1
    24    22    23    1
    25     1     2    1
    26     2     3   ar
    27     3     4   ar
    28     4     5   ar
    29     5     6   ar
    30     6    12    1
    31    12    13    3
    32     6     7   ar
    33     7     8   ar
    34     8     9   ar
    35     9    10   ar
    36    10    11   ar
    37    11    14    1
    38    14    15    1
    39    33    34   ar
    40    34    35   ar
    41    35    39    1
    42    39    40    1
    43    35    36   ar
    44    36    31   ar
    45    21    16   ar
    46    11     2   ar
    47     9     4   ar
    48    29    30    1
@<TRIPOS>MOLECULE
*****
 45 48 0 0 0
SMALL
GASTEIGER

@<TRIPOS>ATOM
      1 C         141.7422  141.7429  164.5294 C.3     1  UNL1        0.0823
      2 C         142.4618  142.0302  163.2450 C.ar    1  UNL1        0.0375
      3 C         141.7173  141.9924  161.9434 C.ar    1  UNL1        0.0023
      4 C         142.4370  142.2797  160.6590 C.ar    1  UNL1        0.0183
      5 C         141.6924  142.2419  159.3574 C.ar    1  UNL1        0.0118
      6 C         142.4121  142.5292  158.0732 C.ar    1  UNL1        0.0685
      7 C         143.8764  142.8542  158.0904 C.ar    1  UNL1        0.0118
      8 C         144.6209  142.8920  159.3920 C.ar    1  UNL1        0.0199
      9 C         143.9012  142.6048  160.6763 C.ar    1  UNL1        0.0844
     10 N         144.6458  142.6425  161.9780 N.ar    1  UNL1       -0.2119
     11 C         143.9261  142.3552  163.2623 C.ar    1  UNL1        0.2211
     12 C         141.6676  142.4914  156.7715 C.1     1  UNL1        0.1004
     13 N         140.9230  142.4536  155.4699 N.1     1  UNL1       -0.1908
     14 O         144.6707  142.3930  164.5640 O.3     1  UNL1       -0.4563
     15 C         144.7209  143.6617  165.3627 C.3     1  UNL1        0.2542
     16 C         142.2425  140.6649  165.4446 C.ar    1  UNL1        0.0405
     17 C         142.4419  140.9523  166.9032 C.ar    1  UNL1        0.0393
     18 C         142.9423  139.8743  167.8184 C.ar    1  UNL1        0.1574
     19 C         143.2433  138.5089  167.2750 C.ar    1  UNL1        0.1388
     20 N         143.0439  138.2216  165.8163 N.ar    1  UNL1       -0.2072
     21 C         142.5435  139.2997  164.9011 C.ar    1  UNL1        0.2213
     22 O         142.3441  139.0123  163.4424 O.3     1  UNL1       -0.4563
     23 C         143.4994  138.5519  162.6039 C.3     1  UNL1        0.2542
     24 O         143.1417  140.1616  169.2771 O.3     1  UNL1       -0.4776
     25 C         142.9148  141.5467  169.8065 C.3     1  UNL1        0.1662
     26 C         141.5605  141.9425  170.3155 C.3     1  UNL1        0.0472
     27 C         144.0423  142.5358  169.8270 C.3     1  UNL1        0.0472
     28 C         140.5221  142.5336  164.8985 C.3     1  UNL1        0.1163
     29 O         141.3361  143.7935  164.8900 O.3     1  UNL1       -0.3820
     30 H         140.7677  144.5472  165.1132 H       1  UNL1        0.2107
     31 C         138.4616  139.4091  166.2183 C.ar    1  UNL1        0.2272
     32 C         139.2756  140.6690  166.2098 C.ar    1  UNL1        0.0559
     33 C         139.7081  141.2737  164.9070 C.ar    1  UNL1        0.0117
     34 C         139.3267  140.6184  163.6128 C.ar    1  UNL1        0.0559
     35 C         138.5128  139.3585  163.6213 C.ar    1  UNL1        0.2272
     36 N         138.0802  138.7538  164.9241 N.ar    1  UNL1       -0.1767
     37 C         137.0112  137.7027  167.5354 C.3     1  UNL1        0.2542
     38 O         138.0291  138.8044  167.5212 O.3     1  UNL1       -0.4561
     39 O         138.1314  138.7032  162.3270 O.3     1  UNL1       -0.4561
     40 C         139.1854  138.0702  161.4677 C.3     1  UNL1        0.2542
     41 C         139.3020  143.3243  165.2676 C.3     1  UNL1        0.0491
     42 C         138.9763  144.5889  164.5297 C.3     1  UNL1        0.0750
     43 N         138.9326  144.5923  163.0303 N.3     1  UNL1       -0.2702
     44 C         139.8117  145.5295  162.2566 C.3     1  UNL1        0.0897
     45 C         138.0099  143.6585  162.3047 C.3     1  UNL1        0.0897
@<TRIPOS>BOND
     1    37    38    1
     2    38    31    1
     3    31    32   ar
     4    32    33   ar
     5    33    28    1
     6    28    29    1
     7    28    41    1
     8    41    42    1
     9    42    43    1
    10    43    44    1
    11    43    45    1
    12    28     1    1
    13     1    16    1
    14    16    17   ar
    15    17    18   ar
    16    18    24    1
    17    24    25    1
    18    25    26    1
    19    25    27    1
    20    18    19   ar
    21    19    20   ar
    22    20    21   ar
    23    21    22    1
    24    22    23    1
    25     1     2    1
    26     2     3   ar
    27     3     4   ar
    28     4     5   ar
    29     5     6   ar
    30     6    12    1
    31    12    13    3
    32     6     7   ar
    33     7     8   ar
    34     8     9   ar
    35     9    10   ar
    36    10    11   ar
    37    11    14    1
    38    14    15    1
    39    33    34   ar
    40    34    35   ar
    41    35    39    1
    42    39    40    1
    43    35    36   ar
    44    36    31   ar
    45    21    16   ar
    46    11     2   ar
    47     9     4   ar
    48    29    30    1
@<TRIPOS>MOLECULE
*****
 45 48 0 0 0
SMALL
GASTEIGER

@<TRIPOS>ATOM
      1 C         141.4032  140.9944  162.5112 C.3     1  UNL1        0.0823
      2 C         141.6932  140.5565  163.9163 C.ar    1  UNL1        0.0375
      3 C         141.9326  141.5799  164.9865 C.ar    1  UNL1        0.0023
      4 C         142.2226  141.1420  166.3916 C.ar    1  UNL1        0.0183
      5 C         142.4619  142.1653  167.4618 C.ar    1  UNL1        0.0118
      6 C         142.7519  141.7274  168.8668 C.ar    1  UNL1        0.0685
      7 C         142.8026  140.2661  169.2016 C.ar    1  UNL1        0.0118
      8 C         142.5632  139.2427  168.1314 C.ar    1  UNL1        0.0199
      9 C         142.2732  139.6807  166.7264 C.ar    1  UNL1        0.0844
     10 N         142.0339  138.6573  165.6561 N.ar    1  UNL1       -0.2119
     11 C         141.7439  139.0952  164.2511 C.ar    1  UNL1        0.2211
     12 C         142.9913  142.7507  169.9371 C.1     1  UNL1        0.1004
     13 N         143.2307  143.7740  171.0074 N.1     1  UNL1       -0.1908
     14 O         141.5045  138.0719  163.1808 O.3     1  UNL1       -0.4563
     15 C         140.2546  137.2429  163.2019 C.3     1  UNL1        0.2542
     16 C         140.1138  140.6005  161.8539 C.ar    1  UNL1        0.0405
     17 C         140.1025  140.1878  160.4118 C.ar    1  UNL1        0.0393
     18 C         138.8131  139.7938  159.7545 C.ar    1  UNL1        0.1574
     19 C         137.5348  139.8126  160.5393 C.ar    1  UNL1        0.1388
     20 N         137.5461  140.2253  161.9813 N.ar    1  UNL1       -0.2072
     21 C         138.8356  140.6193  162.6386 C.ar    1  UNL1        0.2213
     22 O         138.8469  141.0320  164.0807 O.3     1  UNL1       -0.4563
     23 C         138.2358  140.1405  165.1208 C.3     1  UNL1        0.2542
     24 O         138.8018  139.3811  158.3125 O.3     1  UNL1       -0.4776
     25 C         138.7379  140.4226  157.2348 C.3     1  UNL1        0.1662
     26 C         137.4127  140.8267  156.6600 C.3     1  UNL1        0.0472
     27 C         139.9993  141.0598  156.7319 C.3     1  UNL1        0.0472
     28 C         142.4027  141.8263  161.7635 C.3     1  UNL1        0.1163
     29 O         143.3799  140.6890  161.8045 O.3     1  UNL1       -0.3820
     30 H         144.1999  140.9510  161.3575 H       1  UNL1        0.2107
     31 C         140.1111  144.7531  160.3735 C.ar    1  UNL1        0.2272
     32 C         141.0883  143.6159  160.4146 C.ar    1  UNL1        0.0559
     33 C         141.4255  142.9635  161.7225 C.ar    1  UNL1        0.0117
     34 C         140.7854  143.4485  162.9894 C.ar    1  UNL1        0.0559
     35 C         139.8082  144.5857  162.9484 C.ar    1  UNL1        0.2272
     36 N         139.4711  145.2381  161.6404 N.ar    1  UNL1       -0.1767
     37 C         140.0575  144.6923  157.7767 C.3     1  UNL1        0.2542
     38 O         139.7740  145.4055  159.0655 O.3     1  UNL1       -0.4561
     39 O         139.1681  145.0707  164.2154 O.3     1  UNL1       -0.4561
     40 C         137.9932  144.3367  164.7906 C.3     1  UNL1        0.2542
     41 C         143.4022  142.6581  161.0158 C.3     1  UNL1        0.0491
     42 C         144.6900  143.0552  161.6744 C.3     1  UNL1        0.0750
     43 N         144.7936  143.0705  163.1708 N.3     1  UNL1       -0.2702
     44 C         145.5294  141.9744  163.8829 C.3     1  UNL1        0.0897
     45 C         144.1614  144.1819  163.9550 C.3     1  UNL1        0.0897
@<TRIPOS>BOND
     1    37    38    1
     2    38    31    1
     3    31    32   ar
     4    32    33   ar
     5    33    28    1
     6    28    29    1
     7    28    41    1
     8    41    42    1
     9    42    43    1
    10    43    44    1
    11    43    45    1
    12    28     1    1
    13     1    16    1
    14    16    17   ar
    15    17    18   ar
    16    18    24    1
    17    24    25    1
    18    25    26    1
    19    25    27    1
    20    18    19   ar
    21    19    20   ar
    22    20    21   ar
    23    21    22    1
    24    22    23    1
    25     1     2    1
    26     2     3   ar
    27     3     4   ar
    28     4     5   ar
    29     5     6   ar
    30     6    12    1
    31    12    13    3
    32     6     7   ar
    33     7     8   ar
    34     8     9   ar
    35     9    10   ar
    36    10    11   ar
    37    11    14    1
    38    14    15    1
    39    33    34   ar
    40    34    35   ar
    41    35    39    1
    42    39    40    1
    43    35    36   ar
    44    36    31   ar
    45    21    16   ar
    46    11     2   ar
    47     9     4   ar
    48    29    30    1
