@<TRIPOS>MOLECULE
*****
 29 31 0 0 0
SMALL
GASTEIGER

@<TRIPOS>ATOM
      1 C         142.0605  142.5106  165.6967 C.ar    1  UNL1        0.0193
      2 C         143.5197  142.7773  165.9191 C.ar    1  UNL1        0.1002
      3 N         144.3396  143.4130  164.8357 N.ar    1  UNL1       -0.2296
      4 C         143.7003  143.7820  163.5300 C.ar    1  UNL1        0.1254
      5 N         144.5202  144.4177  162.4466 N.pl3   1  UNL1       -0.3426
      6 C         142.2411  143.5153  163.3076 C.ar    1  UNL1        0.0327
      7 C         141.4212  142.8796  164.3909 C.ar    1  UNL1        0.0044
      8 H         145.4779  144.5927  162.5926 H       1  UNL1        0.1437
      9 H         144.1006  144.6599  161.5896 H       1  UNL1        0.1437
     10 C         139.6008  140.6036  168.9468 C.ar    1  UNL1        0.1219
     11 C         140.3166  141.8955  169.2082 C.ar    1  UNL1        0.0199
     12 C         141.1365  142.5312  168.1248 C.ar    1  UNL1        0.0014
     13 C         141.2406  141.8749  166.7800 C.ar    1  UNL1        0.0016
     14 C         140.5248  140.5830  166.5186 C.ar    1  UNL1        0.0014
     15 C         139.7049  139.9473  167.6020 C.ar    1  UNL1        0.0199
     16 S         138.7809  139.9679  170.0301 S.O2    1  UNL1        0.0603
     17 O         139.6316  140.6387  171.0676 O.2     1  UNL1       -0.1530
     18 O         137.9302  139.2970  168.9927 O.2     1  UNL1       -0.1530
     19 C         136.5808  138.8283  170.8117 C.3     1  UNL1        0.1102
     20 N         137.9610  139.3322  171.1135 N.3     1  UNL1       -0.1779
     21 H         138.4963  138.5356  171.4588 H       1  UNL1        0.1488
     22 C         141.6017  143.8843  162.0017 C.ar    1  UNL1        0.0221
     23 C         141.8178  143.0248  160.7915 C.ar    1  UNL1        0.0064
     24 C         141.1784  143.3938  159.4858 C.ar    1  UNL1        0.0577
     25 C         140.3229  144.6222  159.3902 C.ar    1  UNL1        0.2250
     26 N         140.1068  145.4817  160.6004 N.ar    1  UNL1       -0.2101
     27 C         140.7462  145.1127  161.9062 C.ar    1  UNL1        0.1021
     28 O         139.6836  144.9912  158.0844 O.3     1  UNL1       -0.4561
     29 C         140.2470  146.1136  157.2641 C.3     1  UNL1        0.2542
@<TRIPOS>BOND
     1    19    20    1
     2    20    16    1
     3    16    17    2
     4    16    18    2
     5    16    10    1
     6    10    11   ar
     7    11    12   ar
     8    12    13   ar
     9    13     1    1
    10     1     2   ar
    11     2     3   ar
    12     3     4   ar
    13     4     5    1
    14     4     6   ar
    15     6    22    1
    16    22    23   ar
    17    23    24   ar
    18    24    25   ar
    19    25    28    1
    20    28    29    1
    21    25    26   ar
    22    26    27   ar
    23     6     7   ar
    24    13    14   ar
    25    14    15   ar
    26    15    10   ar
    27     7     1   ar
    28    27    22   ar
    29    20    21    1
    30     5     8    1
    31     5     9    1
@<TRIPOS>MOLECULE
*****
 29 31 0 0 0
SMALL
GASTEIGER

@<TRIPOS>ATOM
      1 C         139.1105  139.8481  163.0857 C.ar    1  UNL1        0.0193
      2 C         137.7680  139.6041  162.4626 C.ar    1  UNL1        0.1002
      3 N         137.6428  139.4882  160.9724 N.ar    1  UNL1       -0.2296
      4 C         138.8599  139.6162  160.1052 C.ar    1  UNL1        0.1254
      5 N         138.7347  139.5003  158.6149 N.pl3   1  UNL1       -0.3426
      6 C         140.2024  139.8602  160.7283 C.ar    1  UNL1        0.0327
      7 C         140.3276  139.9762  162.2185 C.ar    1  UNL1        0.0044
      8 H         137.8535  139.3401  158.2060 H       1  UNL1        0.1437
      9 H         139.5336  139.5843  158.0458 H       1  UNL1        0.1437
     10 C         139.4863  140.1959  167.5565 C.ar    1  UNL1        0.1219
     11 C         138.5443  139.1932  166.9588 C.ar    1  UNL1        0.0199
     12 C         138.4190  139.0773  165.4685 C.ar    1  UNL1        0.0014
     13 C         139.2357  139.9640  164.5760 C.ar    1  UNL1        0.0016
     14 C         140.1777  140.9667  165.1737 C.ar    1  UNL1        0.0014
     15 C         140.3029  141.0826  166.6640 C.ar    1  UNL1        0.0199
     16 S         139.6115  140.3118  169.0467 S.O2    1  UNL1        0.0603
     17 O         138.3549  139.5101  169.2147 O.2     1  UNL1       -0.1530
     18 O         140.8681  141.1136  168.8787 O.2     1  UNL1       -0.1530
     19 C         140.9405  141.0899  171.1392 C.3     1  UNL1        0.1102
     20 N         139.7368  140.4278  170.5370 N.3     1  UNL1       -0.1779
     21 H         138.9215  140.9478  170.8614 H       1  UNL1        0.1488
     22 C         141.4196  139.9883  159.8611 C.ar    1  UNL1        0.0221
     23 C         141.8355  141.3344  159.3463 C.ar    1  UNL1        0.0064
     24 C         143.0527  141.4625  158.4792 C.ar    1  UNL1        0.0577
     25 C         143.8541  140.2445  158.1268 C.ar    1  UNL1        0.2250
     26 N         143.4383  138.8983  158.6415 N.ar    1  UNL1       -0.2101
     27 C         142.2210  138.7703  159.5087 C.ar    1  UNL1        0.1021
     28 O         145.0713  140.3726  157.2596 O.3     1  UNL1       -0.4561
     29 C         145.6274  141.7293  156.9433 C.3     1  UNL1        0.2542
@<TRIPOS>BOND
     1    19    20    1
     2    20    16    1
     3    16    17    2
     4    16    18    2
     5    16    10    1
     6    10    11   ar
     7    11    12   ar
     8    12    13   ar
     9    13     1    1
    10     1     2   ar
    11     2     3   ar
    12     3     4   ar
    13     4     5    1
    14     4     6   ar
    15     6    22    1
    16    22    23   ar
    17    23    24   ar
    18    24    25   ar
    19    25    28    1
    20    28    29    1
    21    25    26   ar
    22    26    27   ar
    23     6     7   ar
    24    13    14   ar
    25    14    15   ar
    26    15    10   ar
    27     7     1   ar
    28    27    22   ar
    29    20    21    1
    30     5     8    1
    31     5     9    1
@<TRIPOS>MOLECULE
*****
 29 31 0 0 0
SMALL
GASTEIGER

@<TRIPOS>ATOM
      1 C         140.3122  142.9977  165.2795 C.ar    1  UNL1        0.0193
      2 C         139.2632  144.0275  165.5776 C.ar    1  UNL1        0.1002
      3 N         138.7284  144.8941  164.4762 N.ar    1  UNL1       -0.2296
      4 C         139.2428  144.7309  163.0767 C.ar    1  UNL1        0.1254
      5 N         138.7080  145.5975  161.9753 N.pl3   1  UNL1       -0.3426
      6 C         140.2918  143.7011  162.7785 C.ar    1  UNL1        0.0327
      7 C         140.8266  142.8345  163.8800 C.ar    1  UNL1        0.0044
      8 H         138.0195  146.2734  162.1710 H       1  UNL1        0.1437
      9 H         139.0456  145.4903  161.0567 H       1  UNL1        0.1437
     10 C         141.9164  140.3980  168.5837 C.ar    1  UNL1        0.1219
     11 C         142.8110  141.4003  167.9166 C.ar    1  UNL1        0.0199
     12 C         142.2763  142.2669  166.8152 C.ar    1  UNL1        0.0014
     13 C         140.8470  142.1312  166.3809 C.ar    1  UNL1        0.0016
     14 C         139.9524  141.1288  167.0480 C.ar    1  UNL1        0.0014
     15 C         140.4872  140.2623  168.1494 C.ar    1  UNL1        0.0199
     16 S         142.4512  139.5314  169.6851 S.O2    1  UNL1        0.0603
     17 O         141.7396  140.3792  170.6976 O.2     1  UNL1       -0.1530
     18 O         143.1628  138.6837  168.6727 O.2     1  UNL1       -0.1530
     19 C         143.5166  137.2971  170.4742 C.3     1  UNL1        0.1102
     20 N         142.9859  138.6649  170.7866 N.3     1  UNL1       -0.1779
     21 H         143.7471  139.1829  171.2256 H       1  UNL1        0.1488
     22 C         140.8062  143.5378  161.3789 C.ar    1  UNL1        0.0221
     23 C         140.1214  142.5961  160.4333 C.ar    1  UNL1        0.0064
     24 C         140.6357  142.4328  159.0338 C.ar    1  UNL1        0.0577
     25 C         141.8349  143.2112  158.5798 C.ar    1  UNL1        0.2250
     26 N         142.5197  144.1530  159.5254 N.ar    1  UNL1       -0.2101
     27 C         142.0053  144.3163  160.9250 C.ar    1  UNL1        0.1021
     28 O         142.3492  143.0479  157.1802 O.3     1  UNL1       -0.4561
     29 C         142.2161  144.1723  156.1963 C.3     1  UNL1        0.2542
@<TRIPOS>BOND
     1    19    20    1
     2    20    16    1
     3    16    17    2
     4    16    18    2
     5    16    10    1
     6    10    11   ar
     7    11    12   ar
     8    12    13   ar
     9    13     1    1
    10     1     2   ar
    11     2     3   ar
    12     3     4   ar
    13     4     5    1
    14     4     6   ar
    15     6    22    1
    16    22    23   ar
    17    23    24   ar
    18    24    25   ar
    19    25    28    1
    20    28    29    1
    21    25    26   ar
    22    26    27   ar
    23     6     7   ar
    24    13    14   ar
    25    14    15   ar
    26    15    10   ar
    27     7     1   ar
    28    27    22   ar
    29    20    21    1
    30     5     8    1
    31     5     9    1
@<TRIPOS>MOLECULE
*****
 29 31 0 0 0
SMALL
GASTEIGER

@<TRIPOS>ATOM
      1 C         138.9881  141.6731  163.2659 C.ar    1  UNL1        0.0193
      2 C         138.1284  142.8530  162.9211 C.ar    1  UNL1        0.1002
      3 N         137.8966  143.2178  161.4848 N.ar    1  UNL1       -0.2296
      4 C         138.5244  142.4029  160.3932 C.ar    1  UNL1        0.1254
      5 N         138.2926  142.7677  158.9568 N.pl3   1  UNL1       -0.3426
      6 C         139.3841  141.2230  160.7380 C.ar    1  UNL1        0.0327
      7 C         139.6159  140.8582  162.1743 C.ar    1  UNL1        0.0044
      8 H         137.7283  143.5421  158.7306 H       1  UNL1        0.1437
      9 H         138.7046  142.2328  158.2404 H       1  UNL1        0.1437
     10 C         139.6837  140.5785  167.5750 C.ar    1  UNL1        0.1219
     11 C         138.8861  139.6679  166.6892 C.ar    1  UNL1        0.0199
     12 C         138.6543  140.0328  165.2528 C.ar    1  UNL1        0.0014
     13 C         139.2200  141.3083  164.7023 C.ar    1  UNL1        0.0016
     14 C         140.0175  142.2189  165.5881 C.ar    1  UNL1        0.0014
     15 C         140.2493  141.8540  167.0244 C.ar    1  UNL1        0.0199
     16 S         139.9155  140.2137  169.0113 S.O2    1  UNL1        0.0603
     17 O         138.5807  139.5307  169.0533 O.2     1  UNL1       -0.1530
     18 O         141.2503  140.8967  168.9694 O.2     1  UNL1       -0.1530
     19 C         141.0011  140.7249  171.3157 C.3     1  UNL1        0.1102
     20 N         140.1474  139.8488  170.4477 N.3     1  UNL1       -0.1779
     21 H         139.2300  139.7997  170.8908 H       1  UNL1        0.1488
     22 C         140.0120  140.4080  159.6463 C.ar    1  UNL1        0.0221
     23 C         141.3610  140.7853  159.1100 C.ar    1  UNL1        0.0064
     24 C         141.9889  139.9704  158.0184 C.ar    1  UNL1        0.0577
     25 C         141.2677  138.7780  157.4632 C.ar    1  UNL1        0.2250
     26 N         139.9187  138.4006  157.9996 N.ar    1  UNL1       -0.2101
     27 C         139.2908  139.2157  159.0912 C.ar    1  UNL1        0.1021
     28 O         141.8956  137.9630  156.3716 O.3     1  UNL1       -0.4561
     29 C         142.7887  136.8084  156.7168 C.3     1  UNL1        0.2542
@<TRIPOS>BOND
     1    19    20    1
     2    20    16    1
     3    16    17    2
     4    16    18    2
     5    16    10    1
     6    10    11   ar
     7    11    12   ar
     8    12    13   ar
     9    13     1    1
    10     1     2   ar
    11     2     3   ar
    12     3     4   ar
    13     4     5    1
    14     4     6   ar
    15     6    22    1
    16    22    23   ar
    17    23    24   ar
    18    24    25   ar
    19    25    28    1
    20    28    29    1
    21    25    26   ar
    22    26    27   ar
    23     6     7   ar
    24    13    14   ar
    25    14    15   ar
    26    15    10   ar
    27     7     1   ar
    28    27    22   ar
    29    20    21    1
    30     5     8    1
    31     5     9    1
@<TRIPOS>MOLECULE
*****
 29 31 0 0 0
SMALL
GASTEIGER

@<TRIPOS>ATOM
      1 C         139.5656  140.6870  161.2381 C.ar    1  UNL1        0.0193
      2 C         138.5359  141.6971  160.8264 C.ar    1  UNL1        0.1002
      3 N         137.6911  142.3731  161.8652 N.ar    1  UNL1       -0.2296
      4 C         137.8759  142.0392  163.3158 C.ar    1  UNL1        0.1254
      5 N         137.0310  142.7152  164.3546 N.pl3   1  UNL1       -0.3426
      6 C         138.9055  141.0291  163.7275 C.ar    1  UNL1        0.0327
      7 C         139.7504  140.3530  162.6887 C.ar    1  UNL1        0.0044
      8 H         136.3552  143.3782  164.0843 H       1  UNL1        0.1437
      9 H         137.1523  142.4960  165.3067 H       1  UNL1        0.1437
     10 C         142.1001  138.6588  158.1216 C.ar    1  UNL1        0.1219
     11 C         140.6522  138.2940  158.2644 C.ar    1  UNL1        0.0199
     12 C         139.8074  138.9701  159.3033 C.ar    1  UNL1        0.0014
     13 C         140.4104  140.0110  160.1993 C.ar    1  UNL1        0.0016
     14 C         141.8583  140.3757  160.0564 C.ar    1  UNL1        0.0014
     15 C         142.7032  139.6997  159.0176 C.ar    1  UNL1        0.0199
     16 S         142.9450  137.9828  157.0828 S.O2    1  UNL1        0.0603
     17 O         141.9328  136.8808  156.9768 O.2     1  UNL1       -0.1530
     18 O         143.9571  139.0847  157.1887 O.2     1  UNL1       -0.1530
     19 C         143.8245  135.8093  155.9637 C.3     1  UNL1        0.1102
     20 N         143.7898  137.3067  156.0439 N.3     1  UNL1       -0.1779
     21 H         143.4662  137.6427  155.1369 H       1  UNL1        0.1488
     22 C         139.0904  140.6951  165.1782 C.ar    1  UNL1        0.0221
     23 C         138.3348  139.5510  165.7865 C.ar    1  UNL1        0.0064
     24 C         138.5196  139.2169  167.2371 C.ar    1  UNL1        0.0577
     25 C         139.4600  140.0270  168.0794 C.ar    1  UNL1        0.2250
     26 N         140.2156  141.1711  167.4711 N.ar    1  UNL1       -0.2101
     27 C         140.0308  141.5051  166.0204 C.ar    1  UNL1        0.1021
     28 O         139.6448  139.6929  169.5300 O.3     1  UNL1       -0.4561
     29 C         141.0129  139.7436  170.1429 C.3     1  UNL1        0.2542
@<TRIPOS>BOND
     1    19    20    1
     2    20    16    1
     3    16    17    2
     4    16    18    2
     5    16    10    1
     6    10    11   ar
     7    11    12   ar
     8    12    13   ar
     9    13     1    1
    10     1     2   ar
    11     2     3   ar
    12     3     4   ar
    13     4     5    1
    14     4     6   ar
    15     6    22    1
    16    22    23   ar
    17    23    24   ar
    18    24    25   ar
    19    25    28    1
    20    28    29    1
    21    25    26   ar
    22    26    27   ar
    23     6     7   ar
    24    13    14   ar
    25    14    15   ar
    26    15    10   ar
    27     7     1   ar
    28    27    22   ar
    29    20    21    1
    30     5     8    1
    31     5     9    1
@<TRIPOS>MOLECULE
*****
 29 31 0 0 0
SMALL
GASTEIGER

@<TRIPOS>ATOM
      1 C         139.2553  141.9199  163.4166 C.ar    1  UNL1        0.0193
      2 C         137.8850  142.3306  162.9655 C.ar    1  UNL1        0.1002
      3 N         137.6603  142.7611  161.5463 N.ar    1  UNL1       -0.2296
      4 C         138.8058  142.7810  160.5782 C.ar    1  UNL1        0.1254
      5 N         138.5811  143.2115  159.1590 N.pl3   1  UNL1       -0.3426
      6 C         140.1761  142.3703  161.0293 C.ar    1  UNL1        0.0327
      7 C         140.4009  141.9398  162.4485 C.ar    1  UNL1        0.0044
      8 H         137.6817  143.4811  158.8629 H       1  UNL1        0.1437
      9 H         139.3330  143.2246  158.5236 H       1  UNL1        0.1437
     10 C         139.9295  140.6283  167.6742 C.ar    1  UNL1        0.1219
     11 C         140.3843  141.9838  167.2207 C.ar    1  UNL1        0.0199
     12 C         140.1595  142.4143  165.8015 C.ar    1  UNL1        0.0014
     13 C         139.4800  141.4894  164.8358 C.ar    1  UNL1        0.0016
     14 C         139.0253  140.1338  165.2893 C.ar    1  UNL1        0.0014
     15 C         139.2500  139.7033  166.7085 C.ar    1  UNL1        0.0199
     16 S         140.1542  140.1977  169.0934 S.O2    1  UNL1        0.0603
     17 O         138.7504  139.6730  169.1565 O.2     1  UNL1       -0.1530
     18 O         141.5581  140.7224  169.0303 O.2     1  UNL1       -0.1530
     19 C         141.0217  140.7073  171.4887 C.3     1  UNL1        0.1102
     20 N         140.3790  139.7672  170.5126 N.3     1  UNL1       -0.1779
     21 H         139.4649  139.5251  170.8951 H       1  UNL1        0.1488
     22 C         141.3218  142.3902  160.0612 C.ar    1  UNL1        0.0221
     23 C         141.6082  141.1864  159.2133 C.ar    1  UNL1        0.0064
     24 C         142.7538  141.2063  158.2453 C.ar    1  UNL1        0.0577
     25 C         143.6131  142.4299  158.1251 C.ar    1  UNL1        0.2250
     26 N         143.3267  143.6337  158.9730 N.ar    1  UNL1       -0.2101
     27 C         142.1810  143.6138  159.9410 C.ar    1  UNL1        0.1021
     28 O         144.7587  142.4497  157.1570 O.3     1  UNL1       -0.4561
     29 C         145.4505  141.1712  156.7874 C.3     1  UNL1        0.2542
@<TRIPOS>BOND
     1    19    20    1
     2    20    16    1
     3    16    17    2
     4    16    18    2
     5    16    10    1
     6    10    11   ar
     7    11    12   ar
     8    12    13   ar
     9    13     1    1
    10     1     2   ar
    11     2     3   ar
    12     3     4   ar
    13     4     5    1
    14     4     6   ar
    15     6    22    1
    16    22    23   ar
    17    23    24   ar
    18    24    25   ar
    19    25    28    1
    20    28    29    1
    21    25    26   ar
    22    26    27   ar
    23     6     7   ar
    24    13    14   ar
    25    14    15   ar
    26    15    10   ar
    27     7     1   ar
    28    27    22   ar
    29    20    21    1
    30     5     8    1
    31     5     9    1
@<TRIPOS>MOLECULE
*****
 29 31 0 0 0
SMALL
GASTEIGER

@<TRIPOS>ATOM
      1 C         139.7419  139.2790  163.5330 C.ar    1  UNL1        0.0193
      2 C         139.6744  137.8676  163.0297 C.ar    1  UNL1        0.1002
      3 N         139.6293  137.5987  161.5547 N.ar    1  UNL1       -0.2296
      4 C         139.6517  138.7412  160.5830 C.ar    1  UNL1        0.1254
      5 N         139.6066  138.4723  159.1080 N.pl3   1  UNL1       -0.3426
      6 C         139.7192  140.1526  161.0863 C.ar    1  UNL1        0.0327
      7 C         139.7643  140.4215  162.5613 C.ar    1  UNL1        0.0044
      8 H         139.5623  137.5459  158.7776 H       1  UNL1        0.1437
      9 H         139.6213  139.2222  158.4702 H       1  UNL1        0.1437
     10 C         139.8771  140.0857  167.9580 C.ar    1  UNL1        0.1219
     11 C         141.0417  140.4626  167.0910 C.ar    1  UNL1        0.0199
     12 C         140.9966  140.1937  165.6160 C.ar    1  UNL1        0.0014
     13 C         139.7870  139.5479  165.0080 C.ar    1  UNL1        0.0016
     14 C         138.6224  139.1710  165.8750 C.ar    1  UNL1        0.0014
     15 C         138.6675  139.4399  167.3500 C.ar    1  UNL1        0.0199
     16 S         139.9222  140.3546  169.4331 S.O2    1  UNL1        0.0603
     17 O         138.5411  139.7876  169.5786 O.2     1  UNL1       -0.1530
     18 O         141.3032  140.9216  169.2875 O.2     1  UNL1       -0.1530
     19 C         140.8981  141.6663  171.4522 C.3     1  UNL1        0.1102
     20 N         139.9673  140.6235  170.9081 N.3     1  UNL1       -0.1779
     21 H         139.0246  140.8960  171.1866 H       1  UNL1        0.1488
     22 C         139.7416  141.2951  160.1146 C.ar    1  UNL1        0.0221
     23 C         141.0488  141.7952  159.5750 C.ar    1  UNL1        0.0064
     24 C         141.0713  142.9377  158.6034 C.ar    1  UNL1        0.0577
     25 C         139.7865  143.5802  158.1713 C.ar    1  UNL1        0.2250
     26 N         138.4793  143.0802  158.7109 N.ar    1  UNL1       -0.2101
     27 C         138.4569  141.9376  159.6826 C.ar    1  UNL1        0.1021
     28 O         139.8090  144.7227  157.1997 O.3     1  UNL1       -0.4561
     29 C         140.2537  146.0824  157.6509 C.3     1  UNL1        0.2542
@<TRIPOS>BOND
     1    19    20    1
     2    20    16    1
     3    16    17    2
     4    16    18    2
     5    16    10    1
     6    10    11   ar
     7    11    12   ar
     8    12    13   ar
     9    13     1    1
    10     1     2   ar
    11     2     3   ar
    12     3     4   ar
    13     4     5    1
    14     4     6   ar
    15     6    22    1
    16    22    23   ar
    17    23    24   ar
    18    24    25   ar
    19    25    28    1
    20    28    29    1
    21    25    26   ar
    22    26    27   ar
    23     6     7   ar
    24    13    14   ar
    25    14    15   ar
    26    15    10   ar
    27     7     1   ar
    28    27    22   ar
    29    20    21    1
    30     5     8    1
    31     5     9    1
@<TRIPOS>MOLECULE
*****
 29 31 0 0 0
SMALL
GASTEIGER

@<TRIPOS>ATOM
      1 C         143.3069  140.0181  163.5075 C.ar    1  UNL1        0.0193
      2 C         143.9067  138.7323  163.0209 C.ar    1  UNL1        0.1002
      3 N         144.0475  138.4800  161.5490 N.ar    1  UNL1       -0.2296
      4 C         143.5884  139.5135  160.5637 C.ar    1  UNL1        0.1254
      5 N         143.7292  139.2612  159.0917 N.pl3   1  UNL1       -0.3426
      6 C         142.9886  140.7994  161.0502 C.ar    1  UNL1        0.0327
      7 C         142.8478  141.0517  162.5221 C.ar    1  UNL1        0.0044
      8 H         144.1229  138.4172  158.7724 H       1  UNL1        0.1437
      9 H         143.4279  139.9396  158.4450 H       1  UNL1        0.1437
     10 C         142.8846  140.7751  167.9232 C.ar    1  UNL1        0.1219
     11 C         142.9427  139.3685  167.4056 C.ar    1  UNL1        0.0199
     12 C         143.0835  139.1162  165.9337 C.ar    1  UNL1        0.0014
     13 C         143.1661  140.2705  164.9794 C.ar    1  UNL1        0.0016
     14 C         143.1080  141.6771  165.4970 C.ar    1  UNL1        0.0014
     15 C         142.9672  141.9294  166.9689 C.ar    1  UNL1        0.0199
     16 S         142.7438  141.0274  169.3951 S.O2    1  UNL1        0.0603
     17 O         142.5139  142.4846  169.1234 O.2     1  UNL1       -0.1530
     18 O         142.9737  139.5703  169.6669 O.2     1  UNL1       -0.1530
     19 C         141.2507  141.5542  171.4550 C.3     1  UNL1        0.1102
     20 N         142.6031  141.2797  170.8670 N.3     1  UNL1       -0.1779
     21 H         142.9695  140.4556  171.3434 H       1  UNL1        0.1488
     22 C         142.5295  141.8330  160.0648 C.ar    1  UNL1        0.0221
     23 C         141.1674  141.7261  159.4456 C.ar    1  UNL1        0.0064
     24 C         140.7083  142.7597  158.4603 C.ar    1  UNL1        0.0577
     25 C         141.6113  143.9001  158.0940 C.ar    1  UNL1        0.2250
     26 N         142.9734  144.0070  158.7132 N.ar    1  UNL1       -0.2101
     27 C         143.4325  142.9734  159.6986 C.ar    1  UNL1        0.1021
     28 O         141.1522  144.9337  157.1087 O.3     1  UNL1       -0.4561
     29 C         140.3531  146.1136  157.5769 C.3     1  UNL1        0.2542
@<TRIPOS>BOND
     1    19    20    1
     2    20    16    1
     3    16    17    2
     4    16    18    2
     5    16    10    1
     6    10    11   ar
     7    11    12   ar
     8    12    13   ar
     9    13     1    1
    10     1     2   ar
    11     2     3   ar
    12     3     4   ar
    13     4     5    1
    14     4     6   ar
    15     6    22    1
    16    22    23   ar
    17    23    24   ar
    18    24    25   ar
    19    25    28    1
    20    28    29    1
    21    25    26   ar
    22    26    27   ar
    23     6     7   ar
    24    13    14   ar
    25    14    15   ar
    26    15    10   ar
    27     7     1   ar
    28    27    22   ar
    29    20    21    1
    30     5     8    1
    31     5     9    1
@<TRIPOS>MOLECULE
*****
 29 31 0 0 0
SMALL
GASTEIGER

@<TRIPOS>ATOM
      1 C         140.4183  139.0242  163.5091 C.ar    1  UNL1        0.0193
      2 C         139.2022  138.2629  163.0716 C.ar    1  UNL1        0.1002
      3 N         138.9377  138.0470  161.6110 N.ar    1  UNL1       -0.2296
      4 C         139.8893  138.5925  160.5878 C.ar    1  UNL1        0.1254
      5 N         139.6249  138.3766  159.1272 N.pl3   1  UNL1       -0.3426
      6 C         141.1054  139.3538  161.0254 C.ar    1  UNL1        0.0327
      7 C         141.3699  139.5696  162.4860 C.ar    1  UNL1        0.0044
      8 H         138.8267  137.8769  158.8401 H       1  UNL1        0.1437
      9 H         140.2495  138.7346  158.4557 H       1  UNL1        0.1437
     10 C         141.2117  139.6717  167.8910 C.ar    1  UNL1        0.1219
     11 C         142.3364  139.2948  166.9729 C.ar    1  UNL1        0.0199
     12 C         142.0719  139.0790  165.5122 C.ar    1  UNL1        0.0014
     13 C         140.6828  139.2400  164.9698 C.ar    1  UNL1        0.0016
     14 C         139.5581  139.6169  165.8879 C.ar    1  UNL1        0.0014
     15 C         139.8226  139.8327  167.3486 C.ar    1  UNL1        0.0199
     16 S         141.4762  139.8876  169.3517 S.O2    1  UNL1        0.0603
     17 O         140.0010  139.8626  169.6225 O.2     1  UNL1       -0.1530
     18 O         142.9513  139.9125  169.0809 O.2     1  UNL1       -0.1530
     19 C         141.2831  141.3669  171.4787 C.3     1  UNL1        0.1102
     20 N         141.7407  140.1034  170.8123 N.3     1  UNL1       -0.1779
     21 H         141.2968  139.3311  171.3092 H       1  UNL1        0.1488
     22 C         142.0572  139.8993  160.0022 C.ar    1  UNL1        0.0221
     23 C         141.8828  141.2966  159.4855 C.ar    1  UNL1        0.0064
     24 C         142.8344  141.8422  158.4624 C.ar    1  UNL1        0.0577
     25 C         143.9605  140.9903  157.9560 C.ar    1  UNL1        0.2250
     26 N         144.1348  139.5929  158.4727 N.ar    1  UNL1       -0.2101
     27 C         143.1831  139.0474  159.4958 C.ar    1  UNL1        0.1021
     28 O         144.9121  141.5358  156.9329 O.3     1  UNL1       -0.4561
     29 C         145.5507  140.6146  155.9361 C.3     1  UNL1        0.2542
@<TRIPOS>BOND
     1    19    20    1
     2    20    16    1
     3    16    17    2
     4    16    18    2
     5    16    10    1
     6    10    11   ar
     7    11    12   ar
     8    12    13   ar
     9    13     1    1
    10     1     2   ar
    11     2     3   ar
    12     3     4   ar
    13     4     5    1
    14     4     6   ar
    15     6    22    1
    16    22    23   ar
    17    23    24   ar
    18    24    25   ar
    19    25    28    1
    20    28    29    1
    21    25    26   ar
    22    26    27   ar
    23     6     7   ar
    24    13    14   ar
    25    14    15   ar
    26    15    10   ar
    27     7     1   ar
    28    27    22   ar
    29    20    21    1
    30     5     8    1
    31     5     9    1
