@<TRIPOS>MOLECULE
*****
 33 36 0 0 0
SMALL
GASTEIGER

@<TRIPOS>ATOM
      1 C         139.6011  146.0037  156.0552 C.ar    1  UNL1        0.0523
      2 C         140.5273  145.7886  157.2153 C.ar    1  UNL1        0.0167
      3 C         140.4735  144.5053  157.9901 C.ar    1  UNL1        0.0505
      4 C         139.4935  143.4371  157.6047 C.ar    1  UNL1        0.0170
      5 C         138.5673  143.6522  156.4445 C.ar    1  UNL1        0.0307
      6 C         138.6212  144.9356  155.6698 C.ar    1  UNL1        0.1401
      7 F         137.6949  145.1507  154.5097 F       1  UNL1       -0.2044
      8 C         140.3716  146.3771  154.3273 C.3     1  UNL1        0.0602
      9 C         139.6549  147.2870  155.2804 C.3     1  UNL1        0.2179
     10 C         139.9576  148.2543  154.1746 C.3     1  UNL1        0.1808
     11 N         139.5250  149.6858  154.2910 N.ar    1  UNL1       -0.2384
     12 N         139.6808  150.8595  153.3700 N.ar    1  UNL1       -0.1584
     13 C         139.0419  152.0491  154.0231 C.ar    1  UNL1        0.1704
     14 C         138.4911  151.6107  155.3476 C.ar    1  UNL1        0.0576
     15 C         138.7896  150.1501  155.5132 C.ar    1  UNL1        0.1615
     16 C         138.4870  149.1828  156.6190 C.2     1  UNL1        0.3305
     17 N         137.7516  149.6470  157.8412 N.pl3   1  UNL1       -0.2452
     18 N         138.9196  147.7513  156.5026 N.2     1  UNL1       -0.0666
     19 H         137.4677  150.5866  157.9176 H       1  UNL1        0.2885
     20 H         137.5530  149.0122  158.5670 H       1  UNL1        0.2885
     21 C         138.9668  153.4341  153.4519 C.1     1  UNL1        0.1216
     22 N         138.8918  154.8190  152.8806 N.1     1  UNL1       -0.1892
     23 N         141.3997  144.2902  159.1502 N.am    1  UNL1       -0.2791
     24 C         141.0522  144.8443  160.5001 C.2     1  UNL1        0.2672
     25 O         139.7785  145.6134  160.6900 O.2     1  UNL1       -0.2682
     26 H         142.2357  143.7854  159.0256 H       1  UNL1        0.1552
     27 C         141.9785  144.6292  161.6603 C.ar    1  UNL1        0.1349
     28 C         141.5615  145.0446  163.0399 C.ar    1  UNL1        0.0261
     29 C         142.4878  144.8295  164.2000 C.ar    1  UNL1        0.0329
     30 C         143.8309  144.1990  163.9804 C.ar    1  UNL1        0.1592
     31 F         144.7572  143.9839  165.1405 F       1  UNL1       -0.2025
     32 C         144.2479  143.7836  162.6007 C.ar    1  UNL1        0.1285
     33 N         143.3217  143.9986  161.4406 N.ar    1  UNL1       -0.2369
@<TRIPOS>BOND
     1     9     8    1
     2     9     1    1
     3     1     2   ar
     4     2     3   ar
     5     3    23    1
     6    23    24   am
     7    24    25    2
     8    24    27    1
     9    27    28   ar
    10    28    29   ar
    11    29    30   ar
    12    30    31    1
    13    30    32   ar
    14    32    33   ar
    15     3     4   ar
    16     4     5   ar
    17     5     6   ar
    18     6     7    1
    19     9    10    1
    20    10    11    1
    21    11    12   ar
    22    12    13   ar
    23    13    21    1
    24    21    22    3
    25    13    14   ar
    26    14    15   ar
    27    15    16    1
    28    16    17    1
    29    16    18    2
    30    18     9    1
    31     6     1   ar
    32    15    11   ar
    33    33    27   ar
    34    23    26    1
    35    17    19    1
    36    17    20    1
@<TRIPOS>MOLECULE
*****
 33 36 0 0 0
SMALL
GASTEIGER

@<TRIPOS>ATOM
      1 C         136.1369  140.8304  155.9107 C.ar    1  UNL1        0.0523
      2 C         136.8384  141.7383  156.8768 C.ar    1  UNL1        0.0167
      3 C         138.3256  141.6444  157.0495 C.ar    1  UNL1        0.0505
      4 C         139.1110  140.6426  156.2560 C.ar    1  UNL1        0.0170
      5 C         138.4093  139.7347  155.2898 C.ar    1  UNL1        0.0307
      6 C         136.9222  139.8286  155.1173 C.ar    1  UNL1        0.1401
      7 F         136.2205  138.9207  154.1511 F       1  UNL1       -0.2044
      8 C         135.0996  141.7825  154.5930 C.3     1  UNL1        0.0602
      9 C         134.6497  140.9242  155.7380 C.3     1  UNL1        0.2179
     10 C         133.3189  141.3162  155.1676 C.3     1  UNL1        0.1808
     11 N         132.0546  140.8172  155.8022 N.ar    1  UNL1       -0.2384
     12 N         130.6092  141.0338  155.4651 N.ar    1  UNL1       -0.1584
     13 C         129.7824  140.2767  156.4618 C.ar    1  UNL1        0.1704
     14 C         130.7169  139.5923  157.4148 C.ar    1  UNL1        0.0576
     15 C         132.1212  139.9263  157.0072 C.ar    1  UNL1        0.1615
     16 C         133.4521  139.5344  157.5775 C.2     1  UNL1        0.3305
     17 N         133.5187  138.6435  158.7825 N.pl3   1  UNL1       -0.2452
     18 N         134.7163  140.0334  156.9429 N.2     1  UNL1       -0.0666
     19 H         132.6889  138.3160  159.1990 H       1  UNL1        0.2885
     20 H         134.3921  138.3863  159.1568 H       1  UNL1        0.2885
     21 C         128.2841  140.2149  156.4989 C.1     1  UNL1        0.1216
     22 N         126.7858  140.1531  156.5360 N.1     1  UNL1       -0.1892
     23 N         139.0272  142.5523  158.0155 N.am    1  UNL1       -0.2791
     24 C         138.9504  142.2829  159.4892 C.2     1  UNL1        0.2672
     25 O         138.1719  141.1054  159.9967 O.2     1  UNL1       -0.2682
     26 H         139.5381  143.3251  157.6824 H       1  UNL1        0.1552
     27 C         139.6520  143.1909  160.4553 C.ar    1  UNL1        0.1349
     28 C         141.1481  143.2962  160.4341 C.ar    1  UNL1        0.0261
     29 C         141.8497  144.2042  161.4002 C.ar    1  UNL1        0.0329
     30 C         141.0552  145.0068  162.3874 C.ar    1  UNL1        0.1592
     31 F         141.7569  145.9148  163.3535 F       1  UNL1       -0.2025
     32 C         139.5591  144.9014  162.4085 C.ar    1  UNL1        0.1285
     33 N         138.8574  143.9935  161.4424 N.ar    1  UNL1       -0.2369
@<TRIPOS>BOND
     1     9     8    1
     2     9     1    1
     3     1     2   ar
     4     2     3   ar
     5     3    23    1
     6    23    24   am
     7    24    25    2
     8    24    27    1
     9    27    28   ar
    10    28    29   ar
    11    29    30   ar
    12    30    31    1
    13    30    32   ar
    14    32    33   ar
    15     3     4   ar
    16     4     5   ar
    17     5     6   ar
    18     6     7    1
    19     9    10    1
    20    10    11    1
    21    11    12   ar
    22    12    13   ar
    23    13    21    1
    24    21    22    3
    25    13    14   ar
    26    14    15   ar
    27    15    16    1
    28    16    17    1
    29    16    18    2
    30    18     9    1
    31     6     1   ar
    32    15    11   ar
    33    33    27   ar
    34    23    26    1
    35    17    19    1
    36    17    20    1
@<TRIPOS>MOLECULE
*****
 33 36 0 0 0
SMALL
GASTEIGER

@<TRIPOS>ATOM
      1 C         140.1735  144.5351  157.5960 C.ar    1  UNL1        0.0523
      2 C         140.2248  145.8251  156.8323 C.ar    1  UNL1        0.0167
      3 C         139.2565  146.0736  155.7139 C.ar    1  UNL1        0.0505
      4 C         138.2370  145.0320  155.3592 C.ar    1  UNL1        0.0170
      5 C         138.1858  143.7420  156.1230 C.ar    1  UNL1        0.0307
      6 C         139.1541  143.4936  157.2413 C.ar    1  UNL1        0.1401
      7 F         139.1028  142.2036  158.0051 F       1  UNL1       -0.2044
      8 C         141.8817  143.6403  157.5808 C.3     1  UNL1        0.0602
      9 C         141.1418  144.2866  158.7144 C.3     1  UNL1        0.2179
     10 C         142.3671  143.8137  159.4391 C.3     1  UNL1        0.1808
     11 N         142.5161  144.0733  160.9089 N.ar    1  UNL1       -0.2384
     12 N         143.6033  143.7298  161.8836 N.ar    1  UNL1       -0.1584
     13 C         143.1990  144.2500  163.2311 C.ar    1  UNL1        0.1704
     14 C         141.8620  144.9151  163.0892 C.ar    1  UNL1        0.0576
     15 C         141.4399  144.8058  161.6540 C.ar    1  UNL1        0.1615
     16 C         140.2147  145.2788  160.9293 C.2     1  UNL1        0.3305
     17 N         139.1385  146.0113  161.6744 N.pl3   1  UNL1       -0.2452
     18 N         140.0657  145.0192  159.4595 N.2     1  UNL1       -0.0666
     19 H         139.2364  146.1818  162.6391 H       1  UNL1        0.2885
     20 H         138.3344  146.3218  161.1988 H       1  UNL1        0.2885
     21 C         143.9924  144.1269  164.4981 C.1     1  UNL1        0.1216
     22 N         144.7858  144.0037  165.7651 N.1     1  UNL1       -0.1892
     23 N         139.3078  147.3636  154.9502 N.am    1  UNL1       -0.2791
     24 C         138.9361  148.6504  155.6256 C.2     1  UNL1        0.2672
     25 O         138.5132  148.6471  157.0647 O.2     1  UNL1       -0.2682
     26 H         139.5853  147.3657  154.0057 H       1  UNL1        0.1552
     27 C         138.9874  149.9404  154.8619 C.ar    1  UNL1        0.1349
     28 C         138.5138  151.2109  155.5032 C.ar    1  UNL1        0.0261
     29 C         138.5651  152.5009  154.7394 C.ar    1  UNL1        0.0329
     30 C         139.0900  152.5203  153.3345 C.ar    1  UNL1        0.1592
     31 F         139.1413  153.8104  152.5707 F       1  UNL1       -0.2025
     32 C         139.5637  151.2497  152.6932 C.ar    1  UNL1        0.1285
     33 N         139.5124  149.9597  153.4569 N.ar    1  UNL1       -0.2369
@<TRIPOS>BOND
     1     9     8    1
     2     9     1    1
     3     1     2   ar
     4     2     3   ar
     5     3    23    1
     6    23    24   am
     7    24    25    2
     8    24    27    1
     9    27    28   ar
    10    28    29   ar
    11    29    30   ar
    12    30    31    1
    13    30    32   ar
    14    32    33   ar
    15     3     4   ar
    16     4     5   ar
    17     5     6   ar
    18     6     7    1
    19     9    10    1
    20    10    11    1
    21    11    12   ar
    22    12    13   ar
    23    13    21    1
    24    21    22    3
    25    13    14   ar
    26    14    15   ar
    27    15    16    1
    28    16    17    1
    29    16    18    2
    30    18     9    1
    31     6     1   ar
    32    15    11   ar
    33    33    27   ar
    34    23    26    1
    35    17    19    1
    36    17    20    1
@<TRIPOS>MOLECULE
*****
 33 36 0 0 0
SMALL
GASTEIGER

@<TRIPOS>ATOM
      1 C         140.5548  139.0765  163.0276 C.ar    1  UNL1        0.0523
      2 C         141.3932  139.7457  161.9792 C.ar    1  UNL1        0.0167
      3 C         141.0679  139.5591  160.5268 C.ar    1  UNL1        0.0505
      4 C         139.9041  138.7032  160.1230 C.ar    1  UNL1        0.0170
      5 C         139.0657  138.0339  161.1715 C.ar    1  UNL1        0.0307
      6 C         139.3911  138.2207  162.6238 C.ar    1  UNL1        0.1401
      7 F         138.5527  137.5515  163.6723 F       1  UNL1       -0.2044
      8 C         141.5809  137.9624  164.2212 C.3     1  UNL1        0.0602
      9 C         140.8802  139.2632  164.4800 C.3     1  UNL1        0.2179
     10 C         141.4489  138.9980  165.8425 C.3     1  UNL1        0.1808
     11 N         141.2039  139.9688  166.9594 N.ar    1  UNL1       -0.2384
     12 N         141.6331  139.9744  168.3967 N.ar    1  UNL1       -0.1584
     13 C         141.0846  141.2138  169.0394 C.ar    1  UNL1        0.1704
     14 C         140.3165  141.9742  167.9993 C.ar    1  UNL1        0.0576
     15 C         140.3902  141.2048  166.7138 C.ar    1  UNL1        0.1615
     16 C         139.8215  141.4699  165.3514 C.2     1  UNL1        0.3305
     17 N         139.0078  142.7059  165.1058 N.pl3   1  UNL1       -0.2452
     18 N         140.0665  140.4991  164.2345 N.2     1  UNL1       -0.0666
     19 H         138.8469  143.3430  165.8389 H       1  UNL1        0.2885
     20 H         138.6345  142.8799  164.2116 H       1  UNL1        0.2885
     21 C         141.2715  141.6212  170.4708 C.1     1  UNL1        0.1216
     22 N         141.4584  142.0287  171.9023 N.1     1  UNL1       -0.1892
     23 N         141.9063  140.2283  159.4785 N.am    1  UNL1       -0.2791
     24 C         143.2697  139.6935  159.1542 C.2     1  UNL1        0.2672
     25 O         143.7946  138.4893  159.8783 O.2     1  UNL1       -0.2682
     26 H         141.5617  141.0186  159.0032 H       1  UNL1        0.1552
     27 C         144.1081  140.3627  158.1057 C.ar    1  UNL1        0.1349
     28 C         144.5440  141.7860  158.2900 C.ar    1  UNL1        0.0261
     29 C         145.3824  142.4553  157.2416 C.ar    1  UNL1        0.0329
     30 C         145.7848  141.7012  156.0089 C.ar    1  UNL1        0.1592
     31 F         146.6232  142.3705  154.9605 F       1  UNL1       -0.2025
     32 C         145.3488  140.2779  155.8247 C.ar    1  UNL1        0.1285
     33 N         144.5104  139.6086  156.8731 N.ar    1  UNL1       -0.2369
@<TRIPOS>BOND
     1     9     8    1
     2     9     1    1
     3     1     2   ar
     4     2     3   ar
     5     3    23    1
     6    23    24   am
     7    24    25    2
     8    24    27    1
     9    27    28   ar
    10    28    29   ar
    11    29    30   ar
    12    30    31    1
    13    30    32   ar
    14    32    33   ar
    15     3     4   ar
    16     4     5   ar
    17     5     6   ar
    18     6     7    1
    19     9    10    1
    20    10    11    1
    21    11    12   ar
    22    12    13   ar
    23    13    21    1
    24    21    22    3
    25    13    14   ar
    26    14    15   ar
    27    15    16    1
    28    16    17    1
    29    16    18    2
    30    18     9    1
    31     6     1   ar
    32    15    11   ar
    33    33    27   ar
    34    23    26    1
    35    17    19    1
    36    17    20    1
@<TRIPOS>MOLECULE
*****
 33 36 0 0 0
SMALL
GASTEIGER

@<TRIPOS>ATOM
      1 C         143.4858  140.9790  162.6111 C.ar    1  UNL1        0.0523
      2 C         143.4512  139.8929  161.5771 C.ar    1  UNL1        0.0167
      3 C         143.7725  140.2090  160.1464 C.ar    1  UNL1        0.0505
      4 C         144.1284  141.6112  159.7498 C.ar    1  UNL1        0.0170
      5 C         144.1630  142.6973  160.7839 C.ar    1  UNL1        0.0307
      6 C         143.8416  142.3811  162.2146 C.ar    1  UNL1        0.1401
      7 F         143.8762  143.4671  163.2487 F       1  UNL1       -0.2044
      8 C         144.6087  140.2592  164.0039 C.3     1  UNL1        0.0602
      9 C         143.1645  140.6629  164.0419 C.3     1  UNL1        0.2179
     10 C         143.3449  140.2065  165.4594 C.3     1  UNL1        0.1808
     11 N         142.1926  140.2637  166.4180 N.ar    1  UNL1       -0.2384
     12 N         142.0707  139.8859  167.8645 N.ar    1  UNL1       -0.1584
     13 C         140.6628  140.1659  168.2996 C.ar    1  UNL1        0.1704
     14 C         139.9145  140.7167  167.1220 C.ar    1  UNL1        0.0576
     15 C         140.8600  140.7772  165.9591 C.ar    1  UNL1        0.1615
     16 C         140.6797  141.2335  164.5416 C.2     1  UNL1        0.3305
     17 N         139.3471  141.7470  164.0828 N.pl3   1  UNL1       -0.2452
     18 N         141.8320  141.1763  163.5830 N.2     1  UNL1       -0.0666
     19 H         138.5908  141.7845  164.7119 H       1  UNL1        0.2885
     20 H         139.2288  142.0464  163.1524 H       1  UNL1        0.2885
     21 C         140.1016  139.9354  169.6715 C.1     1  UNL1        0.1216
     22 N         139.5404  139.7050  171.0433 N.1     1  UNL1       -0.1892
     23 N         143.7379  139.1230  159.1124 N.am    1  UNL1       -0.2791
     24 C         142.5094  138.9232  158.2752 C.2     1  UNL1        0.2672
     25 O         141.3155  139.8096  158.4720 O.2     1  UNL1       -0.2682
     26 H         144.5216  138.5412  158.9831 H       1  UNL1        0.1552
     27 C         142.4749  137.8371  157.2411 C.ar    1  UNL1        0.1349
     28 C         141.1617  137.2582  156.8051 C.ar    1  UNL1        0.0261
     29 C         141.1271  136.1721  155.7711 C.ar    1  UNL1        0.0329
     30 C         142.4059  135.6650  155.1731 C.ar    1  UNL1        0.1592
     31 F         142.3713  134.5788  154.1391 F       1  UNL1       -0.2025
     32 C         143.7191  136.2439  155.6092 C.ar    1  UNL1        0.1285
     33 N         143.7537  137.3300  156.6432 N.ar    1  UNL1       -0.2369
@<TRIPOS>BOND
     1     9     8    1
     2     9     1    1
     3     1     2   ar
     4     2     3   ar
     5     3    23    1
     6    23    24   am
     7    24    25    2
     8    24    27    1
     9    27    28   ar
    10    28    29   ar
    11    29    30   ar
    12    30    31    1
    13    30    32   ar
    14    32    33   ar
    15     3     4   ar
    16     4     5   ar
    17     5     6   ar
    18     6     7    1
    19     9    10    1
    20    10    11    1
    21    11    12   ar
    22    12    13   ar
    23    13    21    1
    24    21    22    3
    25    13    14   ar
    26    14    15   ar
    27    15    16    1
    28    16    17    1
    29    16    18    2
    30    18     9    1
    31     6     1   ar
    32    15    11   ar
    33    33    27   ar
    34    23    26    1
    35    17    19    1
    36    17    20    1
@<TRIPOS>MOLECULE
*****
 33 36 0 0 0
SMALL
GASTEIGER

@<TRIPOS>ATOM
      1 C         140.8979  138.9195  161.5983 C.ar    1  UNL1        0.0523
      2 C         141.1378  139.2815  163.0340 C.ar    1  UNL1        0.0167
      3 C         140.0914  138.9851  164.0671 C.ar    1  UNL1        0.0505
      4 C         138.8052  138.3267  163.6643 C.ar    1  UNL1        0.0170
      5 C         138.5654  137.9647  162.2285 C.ar    1  UNL1        0.0307
      6 C         139.6118  138.2611  161.1955 C.ar    1  UNL1        0.1401
      7 F         139.3720  137.8992  159.7597 F       1  UNL1       -0.2044
      8 C         142.3661  137.8358  160.9746 C.3     1  UNL1        0.0602
      9 C         141.9444  139.2159  160.5651 C.3     1  UNL1        0.2179
     10 C         143.1373  139.0330  159.6742 C.3     1  UNL1        0.1808
     11 N         143.5450  140.1272  158.7327 N.ar    1  UNL1       -0.2384
     12 N         144.6664  140.2329  157.7422 N.ar    1  UNL1       -0.1584
     13 C         144.5744  141.5753  157.0794 C.ar    1  UNL1        0.1704
     14 C         143.3961  142.2993  157.6603 C.ar    1  UNL1        0.0576
     15 C         142.7598  141.4043  158.6821 C.ar    1  UNL1        0.1615
     16 C         141.5670  141.5872  159.5730 C.2     1  UNL1        0.3305
     17 N         140.7818  142.8643  159.5223 N.pl3   1  UNL1       -0.2452
     18 N         141.1593  140.4930  160.5145 N.2     1  UNL1       -0.0666
     19 H         141.0494  143.5825  158.9044 H       1  UNL1        0.2885
     20 H         139.9989  142.9843  160.1070 H       1  UNL1        0.2885
     21 C         145.4985  142.1015  156.0215 C.1     1  UNL1        0.1216
     22 N         146.4226  142.6276  154.9635 N.1     1  UNL1       -0.1892
     23 N         140.3312  139.3471  165.5028 N.am    1  UNL1       -0.2791
     24 C         139.6997  140.5785  166.0815 C.2     1  UNL1        0.2672
     25 O         138.8282  141.4479  165.2244 O.2     1  UNL1       -0.2682
     26 H         140.9032  138.7764  166.0654 H       1  UNL1        0.1552
     27 C         139.9396  140.9404  167.5173 C.ar    1  UNL1        0.1349
     28 C         140.5032  142.2856  167.8675 C.ar    1  UNL1        0.0261
     29 C         140.7431  142.6475  169.3033 C.ar    1  UNL1        0.0329
     30 C         140.4193  141.6643  170.3888 C.ar    1  UNL1        0.1592
     31 F         140.6592  142.0263  171.8246 F       1  UNL1       -0.2025
     32 C         139.8556  140.3191  170.0385 C.ar    1  UNL1        0.1285
     33 N         139.6157  139.9571  168.6028 N.ar    1  UNL1       -0.2369
@<TRIPOS>BOND
     1     9     8    1
     2     9     1    1
     3     1     2   ar
     4     2     3   ar
     5     3    23    1
     6    23    24   am
     7    24    25    2
     8    24    27    1
     9    27    28   ar
    10    28    29   ar
    11    29    30   ar
    12    30    31    1
    13    30    32   ar
    14    32    33   ar
    15     3     4   ar
    16     4     5   ar
    17     5     6   ar
    18     6     7    1
    19     9    10    1
    20    10    11    1
    21    11    12   ar
    22    12    13   ar
    23    13    21    1
    24    21    22    3
    25    13    14   ar
    26    14    15   ar
    27    15    16    1
    28    16    17    1
    29    16    18    2
    30    18     9    1
    31     6     1   ar
    32    15    11   ar
    33    33    27   ar
    34    23    26    1
    35    17    19    1
    36    17    20    1
@<TRIPOS>MOLECULE
*****
 33 36 0 0 0
SMALL
GASTEIGER

@<TRIPOS>ATOM
      1 C         139.9800  142.5153  162.5637 C.ar    1  UNL1        0.0523
      2 C         141.1314  142.1389  161.6791 C.ar    1  UNL1        0.0167
      3 C         140.9271  142.0029  160.1993 C.ar    1  UNL1        0.0505
      4 C         139.5713  142.2433  159.6042 C.ar    1  UNL1        0.0170
      5 C         138.4199  142.6198  160.4888 C.ar    1  UNL1        0.0307
      6 C         138.6243  142.7558  161.9686 C.ar    1  UNL1        0.1401
      7 F         137.4729  143.1322  162.8533 F       1  UNL1       -0.2044
      8 C         140.6021  144.0208  163.5959 C.3     1  UNL1        0.0602
      9 C         140.1842  142.6514  164.0435 C.3     1  UNL1        0.2179
     10 C         140.5337  143.2631  165.3679 C.3     1  UNL1        0.1808
     11 N         140.3943  142.4581  166.6259 N.ar    1  UNL1       -0.2384
     12 N         140.6607  142.7898  168.0643 N.ar    1  UNL1       -0.1584
     13 C         140.3365  141.5781  168.8870 C.ar    1  UNL1        0.1704
     14 C         139.8698  140.4977  167.9571 C.ar    1  UNL1        0.0576
     15 C         139.9055  141.0415  166.5596 C.ar    1  UNL1        0.1615
     16 C         139.5561  140.4299  165.2353 C.2     1  UNL1        0.3305
     17 N         139.0673  139.0134  165.1690 N.pl3   1  UNL1       -0.2452
     18 N         139.6955  141.2349  163.9773 N.2     1  UNL1       -0.0666
     19 H         138.9758  138.4850  165.9946 H       1  UNL1        0.2885
     20 H         138.8379  138.6119  164.2998 H       1  UNL1        0.2885
     21 C         140.4577  141.4665  170.3779 C.1     1  UNL1        0.1216
     22 N         140.5790  141.3548  171.8688 N.1     1  UNL1       -0.1892
     23 N         142.0785  141.6264  159.3147 N.am    1  UNL1       -0.2791
     24 C         142.9217  142.6955  158.6854 C.2     1  UNL1        0.2672
     25 O         142.6134  144.1411  158.9407 O.2     1  UNL1       -0.2682
     26 H         142.2808  140.6776  159.1472 H       1  UNL1        0.1552
     27 C         144.0731  142.3190  157.8008 C.ar    1  UNL1        0.1349
     28 C         143.8449  141.4428  156.6050 C.ar    1  UNL1        0.0261
     29 C         144.9963  141.0663  155.7204 C.ar    1  UNL1        0.0329
     30 C         146.3759  141.5660  156.0317 C.ar    1  UNL1        0.1592
     31 F         147.5274  141.1895  155.1471 F       1  UNL1       -0.2025
     32 C         146.6041  142.4422  157.2276 C.ar    1  UNL1        0.1285
     33 N         145.4527  142.8188  158.1122 N.ar    1  UNL1       -0.2369
@<TRIPOS>BOND
     1     9     8    1
     2     9     1    1
     3     1     2   ar
     4     2     3   ar
     5     3    23    1
     6    23    24   am
     7    24    25    2
     8    24    27    1
     9    27    28   ar
    10    28    29   ar
    11    29    30   ar
    12    30    31    1
    13    30    32   ar
    14    32    33   ar
    15     3     4   ar
    16     4     5   ar
    17     5     6   ar
    18     6     7    1
    19     9    10    1
    20    10    11    1
    21    11    12   ar
    22    12    13   ar
    23    13    21    1
    24    21    22    3
    25    13    14   ar
    26    14    15   ar
    27    15    16    1
    28    16    17    1
    29    16    18    2
    30    18     9    1
    31     6     1   ar
    32    15    11   ar
    33    33    27   ar
    34    23    26    1
    35    17    19    1
    36    17    20    1
@<TRIPOS>MOLECULE
*****
 33 36 0 0 0
SMALL
GASTEIGER

@<TRIPOS>ATOM
      1 C         139.2914  139.8835  160.1045 C.ar    1  UNL1        0.0523
      2 C         139.6625  138.6366  159.3578 C.ar    1  UNL1        0.0167
      3 C         140.0233  138.7125  157.9038 C.ar    1  UNL1        0.0505
      4 C         140.0129  140.0352  157.1966 C.ar    1  UNL1        0.0170
      5 C         139.6418  141.2821  157.9433 C.ar    1  UNL1        0.0307
      6 C         139.2810  141.2062  159.3973 C.ar    1  UNL1        0.1401
      7 F         138.9099  142.4531  160.1441 F       1  UNL1       -0.2044
      8 C         137.5932  139.5201  160.9430 C.3     1  UNL1        0.0602
      9 C         138.9306  139.8076  161.5585 C.3     1  UNL1        0.2179
     10 C         138.1052  139.6319  162.7987 C.3     1  UNL1        0.1808
     11 N         138.7426  139.7700  164.1495 N.ar    1  UNL1       -0.2384
     12 N         138.1874  139.6524  165.5380 N.ar    1  UNL1       -0.1584
     13 C         139.3069  139.8936  166.5068 C.ar    1  UNL1        0.1704
     14 C         140.5540  140.1602  165.7170 C.ar    1  UNL1        0.0576
     15 C         140.2052  140.0839  164.2601 C.ar    1  UNL1        0.1615
     16 C         141.0305  140.2595  163.0200 C.2     1  UNL1        0.3305
     17 N         142.4931  140.5734  163.1306 N.pl3   1  UNL1       -0.2452
     18 N         140.3931  140.1214  161.6692 N.2     1  UNL1       -0.0666
     19 H         142.9114  140.6640  164.0171 H       1  UNL1        0.2885
     20 H         143.0348  140.6887  162.3166 H       1  UNL1        0.2885
     21 C         139.1985  139.8719  168.0027 C.1     1  UNL1        0.1216
     22 N         139.0900  139.8502  169.4986 N.1     1  UNL1       -0.1892
     23 N         140.3943  137.4656  157.1571 N.am    1  UNL1       -0.2791
     24 C         141.8318  137.0476  157.0628 C.2     1  UNL1        0.2672
     25 O         142.8983  137.8765  157.7151 O.2     1  UNL1       -0.2682
     26 H         139.6944  136.9215  156.7290 H       1  UNL1        0.1552
     27 C         142.2029  135.8006  156.3161 C.ar    1  UNL1        0.1349
     28 C         143.4384  135.0393  156.6950 C.ar    1  UNL1        0.0261
     29 C         143.8095  133.7923  155.9482 C.ar    1  UNL1        0.0329
     30 C         142.9449  133.3069  154.8227 C.ar    1  UNL1        0.1592
     31 F         143.3160  132.0599  154.0760 F       1  UNL1       -0.2025
     32 C         141.7094  134.0684  154.4438 C.ar    1  UNL1        0.1285
     33 N         141.3383  135.3152  155.1905 N.ar    1  UNL1       -0.2369
@<TRIPOS>BOND
     1     9     8    1
     2     9     1    1
     3     1     2   ar
     4     2     3   ar
     5     3    23    1
     6    23    24   am
     7    24    25    2
     8    24    27    1
     9    27    28   ar
    10    28    29   ar
    11    29    30   ar
    12    30    31    1
    13    30    32   ar
    14    32    33   ar
    15     3     4   ar
    16     4     5   ar
    17     5     6   ar
    18     6     7    1
    19     9    10    1
    20    10    11    1
    21    11    12   ar
    22    12    13   ar
    23    13    21    1
    24    21    22    3
    25    13    14   ar
    26    14    15   ar
    27    15    16    1
    28    16    17    1
    29    16    18    2
    30    18     9    1
    31     6     1   ar
    32    15    11   ar
    33    33    27   ar
    34    23    26    1
    35    17    19    1
    36    17    20    1
@<TRIPOS>MOLECULE
*****
 33 36 0 0 0
SMALL
GASTEIGER

@<TRIPOS>ATOM
      1 C         140.5784  139.5671  162.8212 C.ar    1  UNL1        0.0523
      2 C         140.1618  140.5732  161.7896 C.ar    1  UNL1        0.0167
      3 C         140.4664  140.3319  160.3408 C.ar    1  UNL1        0.0505
      4 C         141.1877  139.0846  159.9237 C.ar    1  UNL1        0.0170
      5 C         141.6042  138.0785  160.9554 C.ar    1  UNL1        0.0307
      6 C         141.2995  138.3199  162.4042 C.ar    1  UNL1        0.1401
      7 F         141.7161  137.3138  163.4358 F       1  UNL1       -0.2044
      8 C         139.0419  139.0530  163.8672 C.3     1  UNL1        0.0602
      9 C         140.2737  139.8084  164.2701 C.3     1  UNL1        0.2179
     10 C         139.5412  139.7872  165.5790 C.3     1  UNL1        0.1808
     11 N         140.1463  140.4377  166.7876 N.ar    1  UNL1       -0.2384
     12 N         139.6630  140.5757  168.2008 N.ar    1  UNL1       -0.1584
     13 C         140.7019  141.3326  168.9741 C.ar    1  UNL1        0.1704
     14 C         141.8272  141.6624  168.0387 C.ar    1  UNL1        0.0576
     15 C         141.4838  141.1093  166.6873 C.ar    1  UNL1        0.1615
     16 C         142.2162  141.1304  165.3785 C.2     1  UNL1        0.3305
     17 N         143.5538  141.8019  165.2782 N.pl3   1  UNL1       -0.2452
     18 N         141.6111  140.4799  164.1699 N.2     1  UNL1       -0.0666
     19 H         143.9509  142.2288  166.0715 H       1  UNL1        0.2885
     20 H         144.0345  141.8158  164.4192 H       1  UNL1        0.2885
     21 C         140.6284  141.6960  170.4275 C.1     1  UNL1        0.1216
     22 N         140.5549  142.0593  171.8810 N.1     1  UNL1       -0.1892
     23 N         140.0498  141.3380  159.3092 N.am    1  UNL1       -0.2791
     24 C         138.7815  141.1364  158.5342 C.2     1  UNL1        0.2672
     25 O         137.9297  139.9287  158.7907 O.2     1  UNL1       -0.2682
     26 H         140.6089  142.1307  159.1408 H       1  UNL1        0.1552
     27 C         138.3649  142.1426  157.5025 C.ar    1  UNL1        0.1349
     28 C         139.2860  143.2692  157.1390 C.ar    1  UNL1        0.0261
     29 C         138.8694  144.2753  156.1073 C.ar    1  UNL1        0.0329
     30 C         137.5318  144.1547  155.4394 C.ar    1  UNL1        0.1592
     31 F         137.1152  145.1609  154.4077 F       1  UNL1       -0.2025
     32 C         136.6108  143.0280  155.8030 C.ar    1  UNL1        0.1285
     33 N         137.0272  142.0219  156.8346 N.ar    1  UNL1       -0.2369
@<TRIPOS>BOND
     1     9     8    1
     2     9     1    1
     3     1     2   ar
     4     2     3   ar
     5     3    23    1
     6    23    24   am
     7    24    25    2
     8    24    27    1
     9    27    28   ar
    10    28    29   ar
    11    29    30   ar
    12    30    31    1
    13    30    32   ar
    14    32    33   ar
    15     3     4   ar
    16     4     5   ar
    17     5     6   ar
    18     6     7    1
    19     9    10    1
    20    10    11    1
    21    11    12   ar
    22    12    13   ar
    23    13    21    1
    24    21    22    3
    25    13    14   ar
    26    14    15   ar
    27    15    16    1
    28    16    17    1
    29    16    18    2
    30    18     9    1
    31     6     1   ar
    32    15    11   ar
    33    33    27   ar
    34    23    26    1
    35    17    19    1
    36    17    20    1
