@<TRIPOS>MOLECULE
*****
 31 34 0 0 0
SMALL
GASTEIGER

@<TRIPOS>ATOM
      1 C         141.5805  143.0210  163.9545 C.ar    1  UNL1        0.0138
      2 C         142.0988  142.4227  162.6804 C.ar    1  UNL1        0.0001
      3 C         141.7703  143.0618  161.3638 C.ar    1  UNL1        0.0190
      4 C         140.9234  144.2991  161.3212 C.ar    1  UNL1        0.0843
      5 C         140.4051  144.8974  162.5953 C.ar    1  UNL1        0.0384
      6 C         139.5996  146.1126  162.2427 C.ar    1  UNL1        0.1220
      7 N         139.6200  146.2654  160.7506 N.ar    1  UNL1       -0.1635
      8 N         140.4382  145.1446  160.1811 N.ar    1  UNL1       -0.2296
      9 C         140.7337  144.2583  163.9120 C.ar    1  UNL1        0.0017
     10 C         140.7215  144.9103  158.7268 C.ar    1  UNL1        0.0829
     11 C         139.9757  143.8447  157.9796 C.ar    1  UNL1        0.0215
     12 C         140.2591  143.6105  156.5254 C.ar    1  UNL1        0.0312
     13 C         141.2881  144.4419  155.8183 C.ar    1  UNL1        0.1402
     14 F         141.5713  144.2076  154.3641 F       1  UNL1       -0.2042
     15 C         142.0338  145.5075  156.5655 C.ar    1  UNL1        0.0312
     16 C         141.7505  145.7417  158.0198 C.ar    1  UNL1        0.0215
     17 C         141.9090  142.3819  165.2713 C.3     1  UNL1        0.2136
     18 O         140.4460  142.2041  165.5501 O.3     1  UNL1       -0.3715
     19 H         140.2673  141.2739  165.7591 H       1  UNL1        0.2114
     20 C         144.1203  142.6310  169.9668 C.3     1  UNL1        0.0334
     21 C         143.3432  141.8674  168.9357 C.ar    1  UNL1        0.0054
     22 C         143.0147  142.5065  167.6191 C.ar    1  UNL1       -0.0035
     23 C         142.2376  141.7429  166.5879 C.ar    1  UNL1        0.0135
     24 C         141.7891  140.3403  166.8735 C.ar    1  UNL1        0.0008
     25 C         142.1177  139.7013  168.1903 C.ar    1  UNL1        0.0291
     26 C         142.8947  140.4648  169.2213 C.ar    1  UNL1        0.1361
     27 F         143.2233  139.8258  170.5380 F       1  UNL1       -0.2045
     28 C         143.3721  142.5597  164.9924 C.3     1  UNL1        0.4267
     29 F         144.8352  142.7374  164.7136 F       1  UNL1       -0.1670
     30 F         143.8817  141.1594  164.8208 F       1  UNL1       -0.1670
     31 F         143.5707  144.0460  165.0292 F       1  UNL1       -0.1670
@<TRIPOS>BOND
     1    20    21    1
     2    21    22   ar
     3    22    23   ar
     4    23    17    1
     5    17    18    1
     6    17     1    1
     7     1     2   ar
     8     2     3   ar
     9     3     4   ar
    10     4     5   ar
    11     5     6   ar
    12     6     7   ar
    13     7     8   ar
    14     8    10    1
    15    10    11   ar
    16    11    12   ar
    17    12    13   ar
    18    13    14    1
    19    13    15   ar
    20    15    16   ar
    21     5     9   ar
    22    17    28    1
    23    28    29    1
    24    28    30    1
    25    28    31    1
    26    23    24   ar
    27    24    25   ar
    28    25    26   ar
    29    26    27    1
    30    26    21   ar
    31     9     1   ar
    32     8     4   ar
    33    16    10   ar
    34    18    19    1
@<TRIPOS>MOLECULE
*****
 31 34 0 0 0
SMALL
GASTEIGER

@<TRIPOS>ATOM
      1 C         140.5022  142.7302  163.2276 C.ar    1  UNL1        0.0138
      2 C         139.3172  143.2124  162.4446 C.ar    1  UNL1        0.0001
      3 C         139.4918  143.6747  161.0284 C.ar    1  UNL1        0.0190
      4 C         140.8515  143.6549  160.3952 C.ar    1  UNL1        0.0843
      5 C         142.0365  143.1728  161.1782 C.ar    1  UNL1        0.0384
      6 C         143.2451  143.2668  160.2949 C.ar    1  UNL1        0.1220
      7 N         142.8071  143.8070  158.9659 N.ar    1  UNL1       -0.1635
      8 N         141.3277  144.0469  159.0278 N.ar    1  UNL1       -0.2296
      9 C         141.8619  142.7104  162.5945 C.ar    1  UNL1        0.0017
     10 C         140.4744  144.5844  157.9175 C.ar    1  UNL1        0.0829
     11 C         139.6012  143.6563  157.1261 C.ar    1  UNL1        0.0215
     12 C         138.7479  144.1939  156.0158 C.ar    1  UNL1        0.0312
     13 C         138.7677  145.6594  155.6968 C.ar    1  UNL1        0.1402
     14 F         137.9144  146.1969  154.5865 F       1  UNL1       -0.2042
     15 C         139.6409  146.5875  156.4882 C.ar    1  UNL1        0.0312
     16 C         140.4942  146.0499  157.5985 C.ar    1  UNL1        0.0215
     17 C         140.3276  142.2679  164.6439 C.3     1  UNL1        0.2136
     18 O         141.0844  141.0121  164.3273 O.3     1  UNL1       -0.3715
     19 H         141.8156  140.9081  164.9562 H       1  UNL1        0.2114
     20 C         140.7773  143.1329  169.7478 C.3     1  UNL1        0.0334
     21 C         140.3779  142.2381  168.6121 C.ar    1  UNL1        0.0054
     22 C         140.5525  142.7004  167.1959 C.ar    1  UNL1       -0.0035
     23 C         140.1530  141.8056  166.0602 C.ar    1  UNL1        0.0135
     24 C         139.5789  140.4485  166.3408 C.ar    1  UNL1        0.0008
     25 C         139.4043  139.9862  167.7571 C.ar    1  UNL1        0.0291
     26 C         139.8038  140.8810  168.8927 C.ar    1  UNL1        0.1361
     27 F         139.6292  140.4187  170.3090 F       1  UNL1       -0.2045
     28 C         139.5708  143.5236  164.9605 C.3     1  UNL1        0.4267
     29 F         138.8140  144.7795  165.2771 F       1  UNL1       -0.1670
     30 F         140.6115  144.6017  164.8919 F       1  UNL1       -0.1670
     31 F         138.1638  143.0534  165.1824 F       1  UNL1       -0.1670
@<TRIPOS>BOND
     1    20    21    1
     2    21    22   ar
     3    22    23   ar
     4    23    17    1
     5    17    18    1
     6    17     1    1
     7     1     2   ar
     8     2     3   ar
     9     3     4   ar
    10     4     5   ar
    11     5     6   ar
    12     6     7   ar
    13     7     8   ar
    14     8    10    1
    15    10    11   ar
    16    11    12   ar
    17    12    13   ar
    18    13    14    1
    19    13    15   ar
    20    15    16   ar
    21     5     9   ar
    22    17    28    1
    23    28    29    1
    24    28    30    1
    25    28    31    1
    26    23    24   ar
    27    24    25   ar
    28    25    26   ar
    29    26    27    1
    30    26    21   ar
    31     9     1   ar
    32     8     4   ar
    33    16    10   ar
    34    18    19    1
@<TRIPOS>MOLECULE
*****
 31 34 0 0 0
SMALL
GASTEIGER

@<TRIPOS>ATOM
      1 C         142.6330  139.6002  162.9773 C.ar    1  UNL1        0.0138
      2 C         141.7115  140.6604  163.5032 C.ar    1  UNL1        0.0001
      3 C         141.5261  140.8264  164.9824 C.ar    1  UNL1        0.0190
      4 C         142.2621  139.9322  165.9356 C.ar    1  UNL1        0.0843
      5 C         143.1836  138.8720  165.4096 C.ar    1  UNL1        0.0384
      6 C         143.7706  138.1445  166.5827 C.ar    1  UNL1        0.1220
      7 N         143.2120  138.7552  167.8337 N.ar    1  UNL1       -0.1635
      8 N         142.2796  139.8600  167.4338 N.ar    1  UNL1       -0.2296
      9 C         143.3691  138.7059  163.9305 C.ar    1  UNL1        0.0017
     10 C         141.5014  140.7385  168.3680 C.ar    1  UNL1        0.0829
     11 C         140.2456  140.2257  169.0083 C.ar    1  UNL1        0.0215
     12 C         139.4675  141.1043  169.9425 C.ar    1  UNL1        0.0312
     13 C         139.9451  142.4955  170.2363 C.ar    1  UNL1        0.1402
     14 F         139.1669  143.3740  171.1705 F       1  UNL1       -0.2042
     15 C         141.2009  143.0083  169.5960 C.ar    1  UNL1        0.0312
     16 C         141.9790  142.1297  168.6618 C.ar    1  UNL1        0.0215
     17 C         142.8185  139.4341  161.4980 C.3     1  UNL1        0.2136
     18 O         144.2960  139.6351  161.6607 O.3     1  UNL1       -0.3715
     19 H         144.7700  138.8922  161.2552 H       1  UNL1        0.2114
     20 C         144.6014  141.2240  156.9574 C.3     1  UNL1        0.0334
     21 C         143.8954  140.1630  157.7485 C.ar    1  UNL1        0.0054
     22 C         143.7100  140.3291  159.2277 C.ar    1  UNL1       -0.0035
     23 C         143.0040  139.2680  160.0188 C.ar    1  UNL1        0.0135
     24 C         142.4834  138.0410  159.3308 C.ar    1  UNL1        0.0008
     25 C         142.6689  137.8750  157.8515 C.ar    1  UNL1        0.0291
     26 C         143.3749  138.9360  157.0604 C.ar    1  UNL1        0.1361
     27 F         143.5603  138.7699  155.5813 F       1  UNL1       -0.2045
     28 C         141.3410  139.2331  161.3353 C.3     1  UNL1        0.4267
     29 F         139.8634  139.0321  161.1727 F       1  UNL1       -0.1670
     30 F         141.0878  137.8882  161.9494 F       1  UNL1       -0.1670
     31 F         140.8790  140.4808  160.6426 F       1  UNL1       -0.1670
@<TRIPOS>BOND
     1    20    21    1
     2    21    22   ar
     3    22    23   ar
     4    23    17    1
     5    17    18    1
     6    17     1    1
     7     1     2   ar
     8     2     3   ar
     9     3     4   ar
    10     4     5   ar
    11     5     6   ar
    12     6     7   ar
    13     7     8   ar
    14     8    10    1
    15    10    11   ar
    16    11    12   ar
    17    12    13   ar
    18    13    14    1
    19    13    15   ar
    20    15    16   ar
    21     5     9   ar
    22    17    28    1
    23    28    29    1
    24    28    30    1
    25    28    31    1
    26    23    24   ar
    27    24    25   ar
    28    25    26   ar
    29    26    27    1
    30    26    21   ar
    31     9     1   ar
    32     8     4   ar
    33    16    10   ar
    34    18    19    1
@<TRIPOS>MOLECULE
*****
 31 34 0 0 0
SMALL
GASTEIGER

@<TRIPOS>ATOM
      1 C         141.3520  142.0697  163.9136 C.ar    1  UNL1        0.0138
      2 C         142.4108  142.5486  162.9652 C.ar    1  UNL1        0.0001
      3 C         142.0340  142.9936  161.5832 C.ar    1  UNL1        0.0190
      4 C         140.5984  142.9597  161.1496 C.ar    1  UNL1        0.0843
      5 C         139.5396  142.4809  162.0981 C.ar    1  UNL1        0.0384
      6 C         138.2173  142.5586  161.3943 C.ar    1  UNL1        0.1220
      7 N         138.4588  143.0856  160.0108 N.ar    1  UNL1       -0.1635
      8 N         139.9304  143.3335  159.8596 N.ar    1  UNL1       -0.2296
      9 C         139.9164  142.0359  163.4801 C.ar    1  UNL1        0.0017
     10 C         140.6141  143.8622  158.6336 C.ar    1  UNL1        0.0829
     11 C         141.2786  145.2066  158.6663 C.ar    1  UNL1        0.0215
     12 C         141.9622  145.7353  157.4403 C.ar    1  UNL1        0.0312
     13 C         141.9813  144.9197  156.1816 C.ar    1  UNL1        0.1402
     14 F         142.6650  145.4485  154.9557 F       1  UNL1       -0.2042
     15 C         141.3168  143.5753  156.1489 C.ar    1  UNL1        0.0312
     16 C         140.6332  143.0466  157.3749 C.ar    1  UNL1        0.0215
     17 C         141.7288  141.6247  165.2957 C.3     1  UNL1        0.2136
     18 O         142.7043  140.6448  164.7143 O.3     1  UNL1       -0.3715
     19 H         143.5792  140.7870  165.1084 H       1  UNL1        0.2114
     20 C         143.7091  142.6849  169.9812 C.3     1  UNL1        0.0334
     21 C         143.0957  141.7098  169.0205 C.ar    1  UNL1        0.0054
     22 C         142.7190  142.1548  167.6385 C.ar    1  UNL1       -0.0035
     23 C         142.1055  141.1797  166.6777 C.ar    1  UNL1        0.0135
     24 C         141.8688  139.7597  167.0991 C.ar    1  UNL1        0.0008
     25 C         142.2456  139.3148  168.4812 C.ar    1  UNL1        0.0291
     26 C         142.8590  140.2898  169.4419 C.ar    1  UNL1        0.1361
     27 F         143.2357  139.8449  170.8239 F       1  UNL1       -0.2045
     28 C         140.7532  142.6046  165.8771 C.3     1  UNL1        0.4267
     29 F         139.7776  143.5845  166.4586 F       1  UNL1       -0.1670
     30 F         139.7534  141.7424  166.5891 F       1  UNL1       -0.1670
     31 F         141.2809  143.9411  165.4466 F       1  UNL1       -0.1670
@<TRIPOS>BOND
     1    20    21    1
     2    21    22   ar
     3    22    23   ar
     4    23    17    1
     5    17    18    1
     6    17     1    1
     7     1     2   ar
     8     2     3   ar
     9     3     4   ar
    10     4     5   ar
    11     5     6   ar
    12     6     7   ar
    13     7     8   ar
    14     8    10    1
    15    10    11   ar
    16    11    12   ar
    17    12    13   ar
    18    13    14    1
    19    13    15   ar
    20    15    16   ar
    21     5     9   ar
    22    17    28    1
    23    28    29    1
    24    28    30    1
    25    28    31    1
    26    23    24   ar
    27    24    25   ar
    28    25    26   ar
    29    26    27    1
    30    26    21   ar
    31     9     1   ar
    32     8     4   ar
    33    16    10   ar
    34    18    19    1
@<TRIPOS>MOLECULE
*****
 31 34 0 0 0
SMALL
GASTEIGER

@<TRIPOS>ATOM
      1 C         141.0122  139.1255  162.9819 C.ar    1  UNL1        0.0138
      2 C         139.8824  138.6380  162.1242 C.ar    1  UNL1        0.0001
      3 C         140.0971  138.4154  160.6564 C.ar    1  UNL1        0.0190
      4 C         141.4416  138.6803  160.0464 C.ar    1  UNL1        0.0843
      5 C         142.5714  139.1678  160.9042 C.ar    1  UNL1        0.0384
      6 C         143.7767  139.3417  160.0283 C.ar    1  UNL1        0.1220
      7 N         143.3917  138.9617  158.6292 N.ar    1  UNL1       -0.1635
      8 N         141.9485  138.5529  158.6404 N.ar    1  UNL1       -0.2296
      9 C         142.3567  139.3904  162.3719 C.ar    1  UNL1        0.0017
     10 C         141.1522  138.0968  157.4539 C.ar    1  UNL1        0.0829
     11 C         141.5477  136.8502  156.7195 C.ar    1  UNL1        0.0215
     12 C         140.7512  136.3941  155.5330 C.ar    1  UNL1        0.0312
     13 C         139.5593  137.1847  155.0810 C.ar    1  UNL1        0.1402
     14 F         138.7629  136.7286  153.8946 F       1  UNL1       -0.2042
     15 C         139.1638  138.4314  155.8155 C.ar    1  UNL1        0.0312
     16 C         139.9602  138.8874  157.0019 C.ar    1  UNL1        0.0215
     17 C         140.7976  139.3481  164.4497 C.3     1  UNL1        0.2136
     18 O         140.5809  140.8105  164.1963 O.3     1  UNL1       -0.3715
     19 H         139.7347  141.0839  164.5837 H       1  UNL1        0.2114
     20 C         142.7210  140.2148  169.1983 C.3     1  UNL1        0.0334
     21 C         141.5447  140.0040  168.2918 C.ar    1  UNL1        0.0054
     22 C         141.7593  139.7814  166.8241 C.ar    1  UNL1       -0.0035
     23 C         140.5829  139.5707  165.9175 C.ar    1  UNL1        0.0135
     24 C         139.1919  139.5824  166.4788 C.ar    1  UNL1        0.0008
     25 C         138.9773  139.8050  167.9466 C.ar    1  UNL1        0.0291
     26 C         140.1537  140.0158  168.8531 C.ar    1  UNL1        0.1361
     27 F         139.9391  140.2383  170.3209 F       1  UNL1       -0.2045
     28 C         141.0142  137.8857  164.7032 C.3     1  UNL1        0.4267
     29 F         141.2308  136.4231  164.9566 F       1  UNL1       -0.1670
     30 F         139.6279  137.3137  164.7360 F       1  UNL1       -0.1670
     31 F         142.5053  137.7497  164.7929 F       1  UNL1       -0.1670
@<TRIPOS>BOND
     1    20    21    1
     2    21    22   ar
     3    22    23   ar
     4    23    17    1
     5    17    18    1
     6    17     1    1
     7     1     2   ar
     8     2     3   ar
     9     3     4   ar
    10     4     5   ar
    11     5     6   ar
    12     6     7   ar
    13     7     8   ar
    14     8    10    1
    15    10    11   ar
    16    11    12   ar
    17    12    13   ar
    18    13    14    1
    19    13    15   ar
    20    15    16   ar
    21     5     9   ar
    22    17    28    1
    23    28    29    1
    24    28    30    1
    25    28    31    1
    26    23    24   ar
    27    24    25   ar
    28    25    26   ar
    29    26    27    1
    30    26    21   ar
    31     9     1   ar
    32     8     4   ar
    33    16    10   ar
    34    18    19    1
@<TRIPOS>MOLECULE
*****
 31 34 0 0 0
SMALL
GASTEIGER

@<TRIPOS>ATOM
      1 C         140.7847  142.4813  163.8835 C.ar    1  UNL1        0.0138
      2 C         141.1297  141.8173  162.5836 C.ar    1  UNL1        0.0001
      3 C         140.9503  142.5585  161.2920 C.ar    1  UNL1        0.0190
      4 C         140.4258  143.9638  161.3003 C.ar    1  UNL1        0.0843
      5 C         140.0808  144.6279  162.6003 C.ar    1  UNL1        0.0384
      6 C         139.5877  146.0117  162.2973 C.ar    1  UNL1        0.1220
      7 N         139.6280  146.2029  160.8101 N.ar    1  UNL1       -0.1635
      8 N         140.1460  144.9373  160.1939 N.ar    1  UNL1       -0.2296
      9 C         140.2603  143.8866  163.8919 C.ar    1  UNL1        0.0017
     10 C         140.3485  144.6886  158.7285 C.ar    1  UNL1        0.0829
     11 C         139.5884  143.5931  158.0416 C.ar    1  UNL1        0.0215
     12 C         139.7910  143.3445  156.5763 C.ar    1  UNL1        0.0312
     13 C         140.7537  144.1915  155.7980 C.ar    1  UNL1        0.1402
     14 F         140.9563  143.9429  154.3327 F       1  UNL1       -0.2042
     15 C         141.5139  145.2871  156.4849 C.ar    1  UNL1        0.0312
     16 C         141.3112  145.5356  157.9502 C.ar    1  UNL1        0.0215
     17 C         140.9641  141.7401  165.1752 C.3     1  UNL1        0.2136
     18 O         142.1117  142.6381  165.5312 O.3     1  UNL1       -0.3715
     19 H         141.9570  143.0294  166.4052 H       1  UNL1        0.2114
     20 C         139.1294  140.2576  169.8051 C.3     1  UNL1        0.0334
     21 C         140.2261  140.2576  168.7818 C.ar    1  UNL1        0.0054
     22 C         140.0467  140.9988  167.4902 C.ar    1  UNL1       -0.0035
     23 C         141.1435  140.9988  166.4669 C.ar    1  UNL1        0.0135
     24 C         142.4197  140.2576  166.7352 C.ar    1  UNL1        0.0008
     25 C         142.5990  139.5163  168.0269 C.ar    1  UNL1        0.0291
     26 C         141.5023  139.5163  169.0502 C.ar    1  UNL1        0.1361
     27 F         141.6816  138.7751  170.3418 F       1  UNL1       -0.2045
     28 C         139.8166  140.8421  164.8193 C.3     1  UNL1        0.4267
     29 F         138.6690  139.9441  164.4633 F       1  UNL1       -0.1670
     30 F         138.6156  141.7366  164.9045 F       1  UNL1       -0.1670
     31 F         140.4622  139.5128  164.5617 F       1  UNL1       -0.1670
@<TRIPOS>BOND
     1    20    21    1
     2    21    22   ar
     3    22    23   ar
     4    23    17    1
     5    17    18    1
     6    17     1    1
     7     1     2   ar
     8     2     3   ar
     9     3     4   ar
    10     4     5   ar
    11     5     6   ar
    12     6     7   ar
    13     7     8   ar
    14     8    10    1
    15    10    11   ar
    16    11    12   ar
    17    12    13   ar
    18    13    14    1
    19    13    15   ar
    20    15    16   ar
    21     5     9   ar
    22    17    28    1
    23    28    29    1
    24    28    30    1
    25    28    31    1
    26    23    24   ar
    27    24    25   ar
    28    25    26   ar
    29    26    27    1
    30    26    21   ar
    31     9     1   ar
    32     8     4   ar
    33    16    10   ar
    34    18    19    1
@<TRIPOS>MOLECULE
*****
 31 34 0 0 0
SMALL
GASTEIGER

@<TRIPOS>ATOM
      1 C         140.1894  139.5359  163.0036 C.ar    1  UNL1        0.0138
      2 C         141.2430  138.6576  162.3966 C.ar    1  UNL1        0.0001
      3 C         141.2075  138.3481  160.9294 C.ar    1  UNL1        0.0190
      4 C         140.1182  138.9170  160.0691 C.ar    1  UNL1        0.0843
      5 C         139.0646  139.7952  160.6761 C.ar    1  UNL1        0.0384
      6 C         138.1214  140.2090  159.5856 C.ar    1  UNL1        0.1220
      7 N         138.5922  139.5864  158.3046 N.ar    1  UNL1       -0.1635
      8 N         139.8263  138.7879  158.6034 N.ar    1  UNL1       -0.2296
      9 C         139.1002  140.1047  162.1433 C.ar    1  UNL1        0.0017
     10 C         140.6277  137.9989  157.6108 C.ar    1  UNL1        0.0829
     11 C         142.1238  137.9640  157.7131 C.ar    1  UNL1        0.0215
     12 C         142.9251  137.1749  156.7206 C.ar    1  UNL1        0.0312
     13 C         142.2304  136.4208  155.6257 C.ar    1  UNL1        0.1402
     14 F         143.0318  135.6317  154.6332 F       1  UNL1       -0.2042
     15 C         140.7343  136.4557  155.5235 C.ar    1  UNL1        0.0312
     16 C         139.9330  137.2447  156.5160 C.ar    1  UNL1        0.0215
     17 C         140.2250  139.8454  164.4710 C.3     1  UNL1        0.2136
     18 O         140.2742  141.3120  164.1605 O.3     1  UNL1       -0.3715
     19 H         139.5607  141.7671  164.6345 H       1  UNL1        0.2114
     20 C         142.5294  142.1178  168.5361 C.3     1  UNL1        0.0334
     21 C         141.4128  141.2910  167.9708 C.ar    1  UNL1        0.0054
     22 C         141.3772  140.9816  166.5036 C.ar    1  UNL1       -0.0035
     23 C         140.2605  140.1548  165.9382 C.ar    1  UNL1        0.0135
     24 C         139.1794  139.6376  166.8402 C.ar    1  UNL1        0.0008
     25 C         139.2150  139.9470  168.3076 C.ar    1  UNL1        0.0291
     26 C         140.3317  140.7738  168.8728 C.ar    1  UNL1        0.1361
     27 F         140.3672  141.0832  170.3401 F       1  UNL1       -0.2045
     28 C         140.1757  138.3787  164.7815 C.3     1  UNL1        0.4267
     29 F         140.1264  136.9120  165.0920 F       1  UNL1       -0.1670
     30 F         138.8003  137.9626  164.3513 F       1  UNL1       -0.1670
     31 F         141.5272  138.0849  165.3620 F       1  UNL1       -0.1670
@<TRIPOS>BOND
     1    20    21    1
     2    21    22   ar
     3    22    23   ar
     4    23    17    1
     5    17    18    1
     6    17     1    1
     7     1     2   ar
     8     2     3   ar
     9     3     4   ar
    10     4     5   ar
    11     5     6   ar
    12     6     7   ar
    13     7     8   ar
    14     8    10    1
    15    10    11   ar
    16    11    12   ar
    17    12    13   ar
    18    13    14    1
    19    13    15   ar
    20    15    16   ar
    21     5     9   ar
    22    17    28    1
    23    28    29    1
    24    28    30    1
    25    28    31    1
    26    23    24   ar
    27    24    25   ar
    28    25    26   ar
    29    26    27    1
    30    26    21   ar
    31     9     1   ar
    32     8     4   ar
    33    16    10   ar
    34    18    19    1
@<TRIPOS>MOLECULE
*****
 31 34 0 0 0
SMALL
GASTEIGER

@<TRIPOS>ATOM
      1 C         140.5182  140.8713  164.4656 C.ar    1  UNL1        0.0138
      2 C         140.7972  141.6369  163.2063 C.ar    1  UNL1        0.0001
      3 C         140.2976  141.1218  161.8891 C.ar    1  UNL1        0.0190
      4 C         139.5190  139.8410  161.8312 C.ar    1  UNL1        0.0843
      5 C         139.2400  139.0754  163.0905 C.ar    1  UNL1        0.0384
      6 C         138.4519  137.8526  162.7246 C.ar    1  UNL1        0.1220
      7 N         138.2439  137.8626  161.2391 N.ar    1  UNL1       -0.1635
      8 N         138.9033  139.0915  160.6869 N.ar    1  UNL1       -0.2296
      9 C         139.7396  139.5905  164.4077 C.ar    1  UNL1        0.0017
     10 C         138.9406  139.4994  159.2439 C.ar    1  UNL1        0.0829
     11 C         139.7921  138.7385  158.2713 C.ar    1  UNL1        0.0215
     12 C         139.8294  139.1464  156.8283 C.ar    1  UNL1        0.0312
     13 C         139.0152  140.3151  156.3580 C.ar    1  UNL1        0.1402
     14 F         139.0525  140.7229  154.9150 F       1  UNL1       -0.2042
     15 C         138.1637  141.0760  157.3306 C.ar    1  UNL1        0.0312
     16 C         138.1264  140.6681  158.7736 C.ar    1  UNL1        0.0215
     17 C         141.0178  141.3864  165.7829 C.3     1  UNL1        0.2136
     18 O         141.6253  140.0467  166.0764 O.3     1  UNL1       -0.3715
     19 H         142.5644  140.1579  166.2925 H       1  UNL1        0.2114
     20 C         140.1130  143.7090  170.3420 C.3     1  UNL1        0.0334
     21 C         141.0649  143.0628  169.3797 C.ar    1  UNL1        0.0054
     22 C         140.5654  142.5477  168.0625 C.ar    1  UNL1       -0.0035
     23 C         141.5173  141.9015  167.1001 C.ar    1  UNL1        0.0135
     24 C         142.9689  141.7704  167.4549 C.ar    1  UNL1        0.0008
     25 C         143.4684  142.2855  168.7722 C.ar    1  UNL1        0.0291
     26 C         142.5164  142.9317  169.7346 C.ar    1  UNL1        0.1361
     27 F         143.0160  143.4469  171.0517 F       1  UNL1       -0.2045
     28 C         140.4103  142.7260  165.4894 C.3     1  UNL1        0.4267
     29 F         139.8027  144.0657  165.1959 F       1  UNL1       -0.1670
     30 F         138.9326  142.4737  165.5412 F       1  UNL1       -0.1670
     31 F         141.5939  143.6268  165.2956 F       1  UNL1       -0.1670
@<TRIPOS>BOND
     1    20    21    1
     2    21    22   ar
     3    22    23   ar
     4    23    17    1
     5    17    18    1
     6    17     1    1
     7     1     2   ar
     8     2     3   ar
     9     3     4   ar
    10     4     5   ar
    11     5     6   ar
    12     6     7   ar
    13     7     8   ar
    14     8    10    1
    15    10    11   ar
    16    11    12   ar
    17    12    13   ar
    18    13    14    1
    19    13    15   ar
    20    15    16   ar
    21     5     9   ar
    22    17    28    1
    23    28    29    1
    24    28    30    1
    25    28    31    1
    26    23    24   ar
    27    24    25   ar
    28    25    26   ar
    29    26    27    1
    30    26    21   ar
    31     9     1   ar
    32     8     4   ar
    33    16    10   ar
    34    18    19    1
@<TRIPOS>MOLECULE
*****
 31 34 0 0 0
SMALL
GASTEIGER

@<TRIPOS>ATOM
      1 C         141.6395  143.6780  161.6014 C.ar    1  UNL1        0.0138
      2 C         140.4313  143.1118  162.2866 C.ar    1  UNL1        0.0001
      3 C         140.5201  142.6654  163.7158 C.ar    1  UNL1        0.0190
      4 C         141.8170  142.7853  164.4599 C.ar    1  UNL1        0.0843
      5 C         143.0252  143.3515  163.7747 C.ar    1  UNL1        0.0384
      6 C         144.1593  143.3472  164.7563 C.ar    1  UNL1        0.1220
      7 N         143.6521  142.7783  166.0482 N.ar    1  UNL1       -0.1635
      8 N         142.2044  142.4310  165.8651 N.ar    1  UNL1       -0.2296
      9 C         142.9364  143.7979  162.3454 C.ar    1  UNL1        0.0017
     10 C         141.3026  141.8341  166.9045 C.ar    1  UNL1        0.0829
     11 C         141.1149  142.5268  168.2217 C.ar    1  UNL1        0.0215
     12 C         140.2131  141.9299  169.2611 C.ar    1  UNL1        0.0312
     13 C         139.4988  140.6404  168.9832 C.ar    1  UNL1        0.1402
     14 F         138.5969  140.0436  170.0227 F       1  UNL1       -0.2042
     15 C         139.6864  139.9478  167.6660 C.ar    1  UNL1        0.0312
     16 C         140.5883  140.5447  166.6267 C.ar    1  UNL1        0.0215
     17 C         141.5508  144.1244  160.1720 C.3     1  UNL1        0.2136
     18 O         141.8798  145.5270  160.5896 O.3     1  UNL1       -0.3715
     19 H         142.6370  145.8483  160.0755 H       1  UNL1        0.2114
     20 C         139.3241  147.0524  156.5021 C.3     1  UNL1        0.0334
     21 C         140.3487  146.0348  156.9078 C.ar    1  UNL1        0.0054
     22 C         140.4374  145.5884  158.3370 C.ar    1  UNL1       -0.0035
     23 C         141.4621  144.5708  158.7428 C.ar    1  UNL1        0.0135
     24 C         142.3980  143.9995  157.7192 C.ar    1  UNL1        0.0008
     25 C         142.3093  144.4459  156.2898 C.ar    1  UNL1        0.0291
     26 C         141.2847  145.4635  155.8842 C.ar    1  UNL1        0.1361
     27 F         141.1960  145.9099  154.4549 F       1  UNL1       -0.2045
     28 C         141.2218  142.7218  159.7544 C.3     1  UNL1        0.4267
     29 F         140.8928  141.3192  159.3368 F       1  UNL1       -0.1670
     30 F         139.7916  142.8016  159.3095 F       1  UNL1       -0.1670
     31 F         142.4928  141.9632  159.9972 F       1  UNL1       -0.1670
@<TRIPOS>BOND
     1    20    21    1
     2    21    22   ar
     3    22    23   ar
     4    23    17    1
     5    17    18    1
     6    17     1    1
     7     1     2   ar
     8     2     3   ar
     9     3     4   ar
    10     4     5   ar
    11     5     6   ar
    12     6     7   ar
    13     7     8   ar
    14     8    10    1
    15    10    11   ar
    16    11    12   ar
    17    12    13   ar
    18    13    14    1
    19    13    15   ar
    20    15    16   ar
    21     5     9   ar
    22    17    28    1
    23    28    29    1
    24    28    30    1
    25    28    31    1
    26    23    24   ar
    27    24    25   ar
    28    25    26   ar
    29    26    27    1
    30    26    21   ar
    31     9     1   ar
    32     8     4   ar
    33    16    10   ar
    34    18    19    1
