@<TRIPOS>MOLECULE
*****
 29 32 0 0 0
SMALL
GASTEIGER

@<TRIPOS>ATOM
      1 C         139.7089  140.5237  168.2939 C.3     1  UNL1        0.0323
      2 C         140.9173  140.8588  169.1170 C.3     1  UNL1        0.1814
      3 N         141.8338  140.9563  170.3004 N.3     1  UNL1       -0.2870
      4 C         143.1709  141.6216  170.1606 C.3     1  UNL1        0.0738
      5 C         143.5915  142.1894  168.8375 C.3     1  UNL1        0.0463
      6 C         142.6750  142.0918  167.6541 C.ar    1  UNL1        0.0140
      7 C         141.3379  141.4266  167.7939 C.ar    1  UNL1        0.1395
      8 O         140.6524  141.4792  166.4607 O.2     1  UNL1       -0.4565
      9 C         141.5658  142.1770  165.4970 C.ar    1  UNL1        0.1459
     10 C         141.4207  142.5165  164.0431 C.ar    1  UNL1        0.0562
     11 C         142.5258  143.2347  163.3268 C.ar    1  UNL1        0.1133
     12 C         143.7758  143.6133  164.0644 C.ar    1  UNL1        0.0189
     13 C         143.9208  143.2738  165.5183 C.ar    1  UNL1        0.0041
     14 C         142.8158  142.5556  166.2346 C.ar    1  UNL1        0.0333
     15 H         142.0110  140.0024  170.6150 H       1  UNL1        0.1238
     16 C         140.0770  140.1746  170.1543 C.3     1  UNL1        0.4153
     17 F         139.2369  139.4905  171.1916 F       1  UNL1       -0.1682
     18 F         141.1387  139.1288  170.3244 F       1  UNL1       -0.1682
     19 F         139.0155  141.2206  169.9842 F       1  UNL1       -0.1682
     20 S         142.3808  143.5743  161.8730 S.O2    1  UNL1        0.0276
     21 O         143.6433  144.3819  161.9357 O.2     1  UNL1       -0.1642
     22 O         141.1183  142.7666  161.8103 O.2     1  UNL1       -0.1642
     23 C         142.2357  143.9138  160.4191 C.ar    1  UNL1        0.1125
     24 C         143.1038  143.2363  159.4006 C.ar    1  UNL1        0.0189
     25 C         142.9587  143.5759  157.9467 C.ar    1  UNL1        0.0036
     26 C         141.9457  144.5929  157.5115 C.ar    1  UNL1        0.0297
     27 C         141.0777  145.2703  158.5301 C.ar    1  UNL1        0.1414
     28 F         140.0647  146.2873  158.0948 F       1  UNL1       -0.2041
     29 C         141.2227  144.9308  159.9839 C.ar    1  UNL1        0.0484
@<TRIPOS>BOND
     1     1     2    1
     2     2    16    1
     3    16    17    1
     4    16    18    1
     5    16    19    1
     6     2     3    1
     7     3     4    1
     8     4     5    1
     9     5     6    1
    10     6     7   ar
    11     7     8   ar
    12     8     9   ar
    13     9    10   ar
    14    10    11   ar
    15    11    20    1
    16    20    21    2
    17    20    22    2
    18    20    23    1
    19    23    24   ar
    20    24    25   ar
    21    25    26   ar
    22    26    27   ar
    23    27    28    1
    24    27    29   ar
    25    11    12   ar
    26    12    13   ar
    27    13    14   ar
    28     7     2    1
    29    14     9   ar
    30    14     6   ar
    31    29    23   ar
    32     3    15    1
@<TRIPOS>MOLECULE
*****
 29 32 0 0 0
SMALL
GASTEIGER

@<TRIPOS>ATOM
      1 C         143.0974  142.3959  168.0985 C.3     1  UNL1        0.0323
      2 C         141.9492  141.8997  168.9264 C.3     1  UNL1        0.1814
      3 N         141.0507  141.6915  170.1093 N.3     1  UNL1       -0.2870
      4 C         139.8320  140.8263  169.9825 C.3     1  UNL1        0.0738
      5 C         139.5117  140.1693  168.6727 C.3     1  UNL1        0.0463
      6 C         140.4101  140.3775  167.4897 C.ar    1  UNL1        0.0140
      7 C         141.6289  141.2426  167.6166 C.ar    1  UNL1        0.1395
      8 O         142.3230  141.2635  166.2870 O.2     1  UNL1       -0.4565
      9 C         141.5332  140.4112  165.3384 C.ar    1  UNL1        0.1459
     10 C         141.7378  140.0630  163.8937 C.ar    1  UNL1        0.0562
     11 C         140.7602  139.1672  163.1924 C.ar    1  UNL1        0.1133
     12 C         139.5780  138.6196  163.9358 C.ar    1  UNL1        0.0189
     13 C         139.3734  138.9678  165.3804 C.ar    1  UNL1        0.0041
     14 C         140.3510  139.8636  166.0817 C.ar    1  UNL1        0.0333
     15 H         140.7277  142.6144  170.3998 H       1  UNL1        0.1238
     16 C         142.6682  142.7291  169.9487 C.3     1  UNL1        0.4153
     17 F         143.3872  143.5585  170.9710 F       1  UNL1       -0.1682
     18 F         141.5547  143.7335  169.9169 F       1  UNL1       -0.1682
     19 F         143.7817  141.7245  169.9805 F       1  UNL1       -0.1682
     20 S         140.9648  138.8190  161.7478 S.O2    1  UNL1        0.0276
     21 O         141.0275  140.2780  161.4050 O.2     1  UNL1       -0.1642
     22 O         140.9021  137.3600  162.0906 O.2     1  UNL1       -0.1642
     23 C         141.1694  138.4708  160.3032 C.ar    1  UNL1        0.1125
     24 C         142.4975  137.9520  159.8377 C.ar    1  UNL1        0.0189
     25 C         142.7021  137.6038  158.3930 C.ar    1  UNL1        0.0036
     26 C         141.5786  137.7744  157.4140 C.ar    1  UNL1        0.0297
     27 C         140.2504  138.2932  157.8797 C.ar    1  UNL1        0.1414
     28 F         139.1268  138.4639  156.9007 F       1  UNL1       -0.2041
     29 C         140.0458  138.6414  159.3242 C.ar    1  UNL1        0.0484
@<TRIPOS>BOND
     1     1     2    1
     2     2    16    1
     3    16    17    1
     4    16    18    1
     5    16    19    1
     6     2     3    1
     7     3     4    1
     8     4     5    1
     9     5     6    1
    10     6     7   ar
    11     7     8   ar
    12     8     9   ar
    13     9    10   ar
    14    10    11   ar
    15    11    20    1
    16    20    21    2
    17    20    22    2
    18    20    23    1
    19    23    24   ar
    20    24    25   ar
    21    25    26   ar
    22    26    27   ar
    23    27    28    1
    24    27    29   ar
    25    11    12   ar
    26    12    13   ar
    27    13    14   ar
    28     7     2    1
    29    14     9   ar
    30    14     6   ar
    31    29    23   ar
    32     3    15    1
@<TRIPOS>MOLECULE
*****
 29 32 0 0 0
SMALL
GASTEIGER

@<TRIPOS>ATOM
      1 C         140.0018  140.2759  168.1726 C.3     1  UNL1        0.0323
      2 C         141.0297  140.8567  169.0979 C.3     1  UNL1        0.1814
      3 N         141.7426  141.2092  170.3696 N.3     1  UNL1       -0.2870
      4 C         143.0055  142.0172  170.3223 C.3     1  UNL1        0.0738
      5 C         143.5555  142.4726  169.0032 C.3     1  UNL1        0.0463
      6 C         142.8427  142.1200  167.7315 C.ar    1  UNL1        0.0140
      7 C         141.5797  141.3121  167.7788 C.ar    1  UNL1        0.1395
      8 O         141.1001  141.1189  166.3707 O.2     1  UNL1       -0.4565
      9 C         142.0665  141.8074  165.4532 C.ar    1  UNL1        0.1459
     10 C         142.1050  141.9509  163.9605 C.ar    1  UNL1        0.0562
     11 C         143.2205  142.7132  163.3089 C.ar    1  UNL1        0.1133
     12 C         144.2974  143.3319  164.1499 C.ar    1  UNL1        0.0189
     13 C         144.2589  143.1884  165.6425 C.ar    1  UNL1        0.0041
     14 C         143.1435  142.4262  166.2942 C.ar    1  UNL1        0.0333
     15 H         141.9730  140.3295  170.8316 H       1  UNL1        0.1238
     16 C         140.1227  140.1995  170.0957 C.3     1  UNL1        0.4153
     17 F         139.2157  139.5424  171.0934 F       1  UNL1       -0.1682
     18 F         141.1287  139.1037  170.2884 F       1  UNL1       -0.1682
     19 F         139.1168  141.2954  169.9029 F       1  UNL1       -0.1682
     20 S         143.2590  142.8567  161.8163 S.O2    1  UNL1        0.0276
     21 O         143.3995  144.3429  161.9628 O.2     1  UNL1       -0.1642
     22 O         143.1184  141.3705  161.6697 O.2     1  UNL1       -0.1642
     23 C         143.2975  143.0002  160.3236 C.ar    1  UNL1        0.1125
     24 C         142.2094  143.7502  159.6140 C.ar    1  UNL1        0.0189
     25 C         142.2479  143.8937  158.1214 C.ar    1  UNL1        0.0036
     26 C         143.3745  143.2872  157.3384 C.ar    1  UNL1        0.0297
     27 C         144.4625  142.5372  158.0481 C.ar    1  UNL1        0.1414
     28 F         145.5891  141.9307  157.2652 F       1  UNL1       -0.2041
     29 C         144.4240  142.3937  159.5407 C.ar    1  UNL1        0.0484
@<TRIPOS>BOND
     1     1     2    1
     2     2    16    1
     3    16    17    1
     4    16    18    1
     5    16    19    1
     6     2     3    1
     7     3     4    1
     8     4     5    1
     9     5     6    1
    10     6     7   ar
    11     7     8   ar
    12     8     9   ar
    13     9    10   ar
    14    10    11   ar
    15    11    20    1
    16    20    21    2
    17    20    22    2
    18    20    23    1
    19    23    24   ar
    20    24    25   ar
    21    25    26   ar
    22    26    27   ar
    23    27    28    1
    24    27    29   ar
    25    11    12   ar
    26    12    13   ar
    27    13    14   ar
    28     7     2    1
    29    14     9   ar
    30    14     6   ar
    31    29    23   ar
    32     3    15    1
@<TRIPOS>MOLECULE
*****
 29 32 0 0 0
SMALL
GASTEIGER

@<TRIPOS>ATOM
      1 C         142.5923  140.0399  167.9461 C.3     1  UNL1        0.0323
      2 C         141.9349  140.9563  168.9351 C.3     1  UNL1        0.1814
      3 N         141.5205  141.5471  170.2501 N.3     1  UNL1       -0.2870
      4 C         140.6348  142.7572  170.2829 C.3     1  UNL1        0.0738
      5 C         140.1635  143.3766  169.0007 C.3     1  UNL1        0.0463
      6 C         140.5779  142.7858  167.6857 C.ar    1  UNL1        0.0140
      7 C         141.4636  141.5757  167.6529 C.ar    1  UNL1        0.1395
      8 O         141.7060  141.2175  166.2166 O.2     1  UNL1       -0.4565
      9 C         140.9702  142.2062  165.3617 C.ar    1  UNL1        0.1459
     10 C         140.8449  142.3492  163.8738 C.ar    1  UNL1        0.0562
     11 C         140.0224  143.4614  163.2938 C.ar    1  UNL1        0.1133
     12 C         139.3252  144.4307  164.2017 C.ar    1  UNL1        0.0189
     13 C         139.4504  144.2877  165.6896 C.ar    1  UNL1        0.0041
     14 C         140.2729  143.1755  166.2696 C.ar    1  UNL1        0.0333
     15 H         142.3774  141.7959  170.7443 H       1  UNL1        0.1238
     16 C         142.6346  140.0186  169.8740 C.3     1  UNL1        0.4153
     17 F         143.3341  139.0810  170.8127 F       1  UNL1       -0.1682
     18 F         141.4989  139.0467  169.7494 F       1  UNL1       -0.1682
     19 F         143.7701  140.9907  169.9985 F       1  UNL1       -0.1682
     20 S         139.8971  143.6043  161.8058 S.O2    1  UNL1        0.0276
     21 O         138.7957  144.6049  161.9947 O.2     1  UNL1       -0.1642
     22 O         140.9986  142.6038  161.6170 O.2     1  UNL1       -0.1642
     23 C         139.7719  143.7473  160.3179 C.ar    1  UNL1        0.1125
     24 C         139.0291  142.7131  159.5251 C.ar    1  UNL1        0.0189
     25 C         138.9038  142.8561  158.0371 C.ar    1  UNL1        0.0036
     26 C         139.5214  144.0332  157.3422 C.ar    1  UNL1        0.0297
     27 C         140.2642  145.0673  158.1351 C.ar    1  UNL1        0.1414
     28 F         140.8817  146.2445  157.4401 F       1  UNL1       -0.2041
     29 C         140.3894  144.9244  159.6229 C.ar    1  UNL1        0.0484
@<TRIPOS>BOND
     1     1     2    1
     2     2    16    1
     3    16    17    1
     4    16    18    1
     5    16    19    1
     6     2     3    1
     7     3     4    1
     8     4     5    1
     9     5     6    1
    10     6     7   ar
    11     7     8   ar
    12     8     9   ar
    13     9    10   ar
    14    10    11   ar
    15    11    20    1
    16    20    21    2
    17    20    22    2
    18    20    23    1
    19    23    24   ar
    20    24    25   ar
    21    25    26   ar
    22    26    27   ar
    23    27    28    1
    24    27    29   ar
    25    11    12   ar
    26    12    13   ar
    27    13    14   ar
    28     7     2    1
    29    14     9   ar
    30    14     6   ar
    31    29    23   ar
    32     3    15    1
@<TRIPOS>MOLECULE
*****
 29 32 0 0 0
SMALL
GASTEIGER

@<TRIPOS>ATOM
      1 C         140.3555  143.0275  168.2307 C.3     1  UNL1        0.0323
      2 C         140.8547  141.8603  169.0298 C.3     1  UNL1        0.1814
      3 N         141.0839  140.9453  170.1961 N.3     1  UNL1       -0.2870
      4 C         141.9171  139.7095  170.0274 C.3     1  UNL1        0.0738
      5 C         142.5211  139.3886  168.6925 C.3     1  UNL1        0.0463
      6 C         142.2919  140.3035  167.5262 C.ar    1  UNL1        0.0140
      7 C         141.4587  141.5394  167.6949 C.ar    1  UNL1        0.1395
      8 O         141.4071  142.2475  166.3735 O.2     1  UNL1       -0.4565
      9 C         142.2083  141.4492  165.3882 C.ar    1  UNL1        0.1459
     10 C         142.5106  141.6612  163.9343 C.ar    1  UNL1        0.0562
     11 C         143.3598  140.6717  163.1929 C.ar    1  UNL1        0.1133
     12 C         143.9066  139.4702  163.9053 C.ar    1  UNL1        0.0189
     13 C         143.6043  139.2583  165.3591 C.ar    1  UNL1        0.0041
     14 C         142.7551  140.2478  166.1006 C.ar    1  UNL1        0.0333
     15 H         140.1647  140.6395  170.5154 H       1  UNL1        0.1238
     16 C         140.0773  142.5866  170.0873 C.3     1  UNL1        0.4153
     17 F         139.3000  143.3129  171.1447 F       1  UNL1       -0.1682
     18 F         141.0962  143.6874  170.0802 F       1  UNL1       -0.1682
     19 F         139.0585  141.4857  170.0943 F       1  UNL1       -0.1682
     20 S         143.6621  140.8836  161.7390 S.O2    1  UNL1        0.0276
     21 O         145.0786  141.2358  162.0849 O.2     1  UNL1       -0.1642
     22 O         142.2456  140.5314  161.3931 O.2     1  UNL1       -0.1642
     23 C         143.9644  141.0955  160.2851 C.ar    1  UNL1        0.1125
     24 C         144.5509  142.3964  159.8229 C.ar    1  UNL1        0.0189
     25 C         144.8532  142.6083  158.3691 C.ar    1  UNL1        0.0036
     26 C         144.5690  141.5193  157.3775 C.ar    1  UNL1        0.0297
     27 C         143.9826  140.2184  157.8397 C.ar    1  UNL1        0.1414
     28 F         143.6984  139.1294  156.8481 F       1  UNL1       -0.2041
     29 C         143.6803  140.0065  159.2935 C.ar    1  UNL1        0.0484
@<TRIPOS>BOND
     1     1     2    1
     2     2    16    1
     3    16    17    1
     4    16    18    1
     5    16    19    1
     6     2     3    1
     7     3     4    1
     8     4     5    1
     9     5     6    1
    10     6     7   ar
    11     7     8   ar
    12     8     9   ar
    13     9    10   ar
    14    10    11   ar
    15    11    20    1
    16    20    21    2
    17    20    22    2
    18    20    23    1
    19    23    24   ar
    20    24    25   ar
    21    25    26   ar
    22    26    27   ar
    23    27    28    1
    24    27    29   ar
    25    11    12   ar
    26    12    13   ar
    27    13    14   ar
    28     7     2    1
    29    14     9   ar
    30    14     6   ar
    31    29    23   ar
    32     3    15    1
@<TRIPOS>MOLECULE
*****
 29 32 0 0 0
SMALL
GASTEIGER

@<TRIPOS>ATOM
      1 C         138.0820  139.3338  165.1306 C.3     1  UNL1        0.0323
      2 C         138.8517  139.8407  166.3141 C.3     1  UNL1        0.1814
      3 N         139.3570  139.9585  167.7215 N.3     1  UNL1       -0.2870
      4 C         140.3562  141.0206  168.0732 C.3     1  UNL1        0.0738
      5 C         140.8501  141.9648  167.0175 C.3     1  UNL1        0.0463
      6 C         140.3448  141.8470  165.6101 C.ar    1  UNL1        0.0140
      7 C         139.3456  140.7849  165.2584 C.ar    1  UNL1        0.1395
      8 O         139.0305  140.9106  163.7973 O.2     1  UNL1       -0.4565
      9 C         139.8350  142.0502  163.2459 C.ar    1  UNL1        0.1459
     10 C         139.9329  142.6358  161.8684 C.ar    1  UNL1        0.0562
     11 C         140.8430  143.8000  161.6112 C.ar    1  UNL1        0.1133
     12 C         141.6552  144.3788  162.7316 C.ar    1  UNL1        0.0189
     13 C         141.5573  143.7932  164.1092 C.ar    1  UNL1        0.0041
     14 C         140.6472  142.6289  164.3663 C.ar    1  UNL1        0.0333
     15 H         139.7843  139.0628  167.9569 H       1  UNL1        0.1238
     16 C         138.0905  138.7204  166.9588 C.3     1  UNL1        0.4153
     17 F         137.3294  137.6001  167.6034 F       1  UNL1       -0.1682
     18 F         138.1342  137.9505  165.6723 F       1  UNL1       -0.1682
     19 F         138.0469  139.4905  168.2453 F       1  UNL1       -0.1682
     20 S         140.9408  144.3856  160.2337 S.O2    1  UNL1        0.0276
     21 O         139.4484  144.3183  160.0991 O.2     1  UNL1       -0.1642
     22 O         142.4333  144.4528  160.3683 O.2     1  UNL1       -0.1642
     23 C         141.0387  144.9711  158.8561 C.ar    1  UNL1        0.1125
     24 C         142.2343  144.6771  157.9995 C.ar    1  UNL1        0.0189
     25 C         142.3322  145.2627  156.6220 C.ar    1  UNL1        0.0036
     26 C         141.2344  146.1422  156.1012 C.ar    1  UNL1        0.0297
     27 C         140.0388  146.4362  156.9579 C.ar    1  UNL1        0.1414
     28 F         138.9410  147.3157  156.4371 F       1  UNL1       -0.2041
     29 C         139.9409  145.8507  158.3353 C.ar    1  UNL1        0.0484
@<TRIPOS>BOND
     1     1     2    1
     2     2    16    1
     3    16    17    1
     4    16    18    1
     5    16    19    1
     6     2     3    1
     7     3     4    1
     8     4     5    1
     9     5     6    1
    10     6     7   ar
    11     7     8   ar
    12     8     9   ar
    13     9    10   ar
    14    10    11   ar
    15    11    20    1
    16    20    21    2
    17    20    22    2
    18    20    23    1
    19    23    24   ar
    20    24    25   ar
    21    25    26   ar
    22    26    27   ar
    23    27    28    1
    24    27    29   ar
    25    11    12   ar
    26    12    13   ar
    27    13    14   ar
    28     7     2    1
    29    14     9   ar
    30    14     6   ar
    31    29    23   ar
    32     3    15    1
@<TRIPOS>MOLECULE
*****
 29 32 0 0 0
SMALL
GASTEIGER

@<TRIPOS>ATOM
      1 C         140.6192  145.2921  160.1242 C.3     1  UNL1        0.0323
      2 C         141.6332  144.6547  159.2211 C.3     1  UNL1        0.1814
      3 N         142.4087  144.3320  157.9783 N.3     1  UNL1       -0.2870
      4 C         143.5187  143.3243  158.0273 C.3     1  UNL1        0.0738
      5 C         143.8532  142.6392  159.3191 C.3     1  UNL1        0.0463
      6 C         143.0777  142.9618  160.5618 C.ar    1  UNL1        0.0140
      7 C         141.9677  143.9696  160.5128 C.ar    1  UNL1        0.1395
      8 O         141.3826  144.0819  161.8894 O.2     1  UNL1       -0.4565
      9 C         142.1310  143.1436  162.7892 C.ar    1  UNL1        0.1459
     10 C         141.9938  142.8301  164.2497 C.ar    1  UNL1        0.0562
     11 C         142.9042  141.8244  164.8897 C.ar    1  UNL1        0.1133
     12 C         143.9519  141.1322  164.0691 C.ar    1  UNL1        0.0189
     13 C         144.0891  141.4457  162.6087 C.ar    1  UNL1        0.0041
     14 C         143.1786  142.4514  161.9687 C.ar    1  UNL1        0.0333
     15 H         142.8194  145.2069  157.6521 H       1  UNL1        0.1238
     16 C         140.9465  145.5612  158.2429 C.3     1  UNL1        0.4153
     17 F         140.2600  146.4677  157.2648 F       1  UNL1       -0.1682
     18 F         142.2284  146.3132  158.0400 F       1  UNL1       -0.1682
     19 F         139.6647  144.8091  158.4459 F       1  UNL1       -0.1682
     20 S         142.7671  141.5110  166.3501 S.O2    1  UNL1        0.0276
     21 O         143.6626  142.6675  166.6825 O.2     1  UNL1       -0.1642
     22 O         141.8716  140.3544  166.0178 O.2     1  UNL1       -0.1642
     23 C         142.6299  141.1975  167.8106 C.ar    1  UNL1        0.1125
     24 C         142.4662  142.3092  168.8041 C.ar    1  UNL1        0.0189
     25 C         142.3291  141.9957  170.2645 C.ar    1  UNL1        0.0036
     26 C         142.3556  140.5705  170.7314 C.ar    1  UNL1        0.0297
     27 C         142.5192  139.4588  169.7378 C.ar    1  UNL1        0.1414
     28 F         142.5457  138.0335  170.2047 F       1  UNL1       -0.2041
     29 C         142.6564  139.7722  168.2775 C.ar    1  UNL1        0.0484
@<TRIPOS>BOND
     1     1     2    1
     2     2    16    1
     3    16    17    1
     4    16    18    1
     5    16    19    1
     6     2     3    1
     7     3     4    1
     8     4     5    1
     9     5     6    1
    10     6     7   ar
    11     7     8   ar
    12     8     9   ar
    13     9    10   ar
    14    10    11   ar
    15    11    20    1
    16    20    21    2
    17    20    22    2
    18    20    23    1
    19    23    24   ar
    20    24    25   ar
    21    25    26   ar
    22    26    27   ar
    23    27    28    1
    24    27    29   ar
    25    11    12   ar
    26    12    13   ar
    27    13    14   ar
    28     7     2    1
    29    14     9   ar
    30    14     6   ar
    31    29    23   ar
    32     3    15    1
@<TRIPOS>MOLECULE
*****
 29 32 0 0 0
SMALL
GASTEIGER

@<TRIPOS>ATOM
      1 C         139.0113  139.5055  159.0535 C.3     1  UNL1        0.0323
      2 C         140.3014  138.8144  158.7246 C.3     1  UNL1        0.1814
      3 N         141.3599  138.1097  157.9291 N.3     1  UNL1       -0.2870
      4 C         142.6371  137.6845  158.5911 C.3     1  UNL1        0.0738
      5 C         142.8557  137.9641  160.0484 C.3     1  UNL1        0.0463
      6 C         141.7971  138.6688  160.8439 C.ar    1  UNL1        0.0140
      7 C         140.5200  139.0940  160.1819 C.ar    1  UNL1        0.1395
      8 O         139.6641  139.7659  161.2144 O.2     1  UNL1       -0.4565
      9 C         140.4123  139.7560  162.5145 C.ar    1  UNL1        0.1459
     10 C         140.0635  140.2768  163.8773 C.ar    1  UNL1        0.0562
     11 C         141.0329  140.1195  165.0110 C.ar    1  UNL1        0.1133
     12 C         142.3512  139.4415  164.7820 C.ar    1  UNL1        0.0189
     13 C         142.7000  138.9207  163.4192 C.ar    1  UNL1        0.0041
     14 C         141.7305  139.0780  162.2855 C.ar    1  UNL1        0.0333
     15 H         141.6181  138.7336  157.1646 H       1  UNL1        0.1238
     16 C         139.6348  138.7748  157.3814 C.3     1  UNL1        0.4153
     17 F         138.9682  138.7352  156.0383 F       1  UNL1       -0.1682
     18 F         139.6275  137.2756  157.4293 F       1  UNL1       -0.1682
     19 F         139.6422  140.2740  157.3336 F       1  UNL1       -0.1682
     20 S         140.6841  140.6403  166.3738 S.O2    1  UNL1        0.0276
     21 O         139.2337  140.3654  166.1076 O.2     1  UNL1       -0.1642
     22 O         142.1345  140.9152  166.6400 O.2     1  UNL1       -0.1642
     23 C         140.3353  141.1611  167.7366 C.ar    1  UNL1        0.1125
     24 C         139.6085  140.2830  168.7116 C.ar    1  UNL1        0.0189
     25 C         139.2597  140.8038  170.0743 C.ar    1  UNL1        0.0036
     26 C         139.6377  142.2026  170.4621 C.ar    1  UNL1        0.0297
     27 C         140.3646  143.0806  169.4870 C.ar    1  UNL1        0.1414
     28 F         140.7427  144.4794  169.8748 F       1  UNL1       -0.2041
     29 C         140.7134  142.5599  168.1244 C.ar    1  UNL1        0.0484
@<TRIPOS>BOND
     1     1     2    1
     2     2    16    1
     3    16    17    1
     4    16    18    1
     5    16    19    1
     6     2     3    1
     7     3     4    1
     8     4     5    1
     9     5     6    1
    10     6     7   ar
    11     7     8   ar
    12     8     9   ar
    13     9    10   ar
    14    10    11   ar
    15    11    20    1
    16    20    21    2
    17    20    22    2
    18    20    23    1
    19    23    24   ar
    20    24    25   ar
    21    25    26   ar
    22    26    27   ar
    23    27    28    1
    24    27    29   ar
    25    11    12   ar
    26    12    13   ar
    27    13    14   ar
    28     7     2    1
    29    14     9   ar
    30    14     6   ar
    31    29    23   ar
    32     3    15    1
@<TRIPOS>MOLECULE
*****
 29 32 0 0 0
SMALL
GASTEIGER

@<TRIPOS>ATOM
      1 C         138.1048  140.2835  164.9792 C.3     1  UNL1        0.0323
      2 C         139.0728  139.1378  164.9610 C.3     1  UNL1        0.1814
      3 N         139.9645  138.0379  165.4561 N.3     1  UNL1       -0.2870
      4 C         140.7397  137.2039  164.4796 C.3     1  UNL1        0.0738
      5 C         140.6232  137.4699  163.0080 C.3     1  UNL1        0.0463
      6 C         139.7316  138.5698  162.5129 C.ar    1  UNL1        0.0140
      7 C         138.9564  139.4037  163.4894 C.ar    1  UNL1        0.1395
      8 O         138.1633  140.4114  162.7113 O.2     1  UNL1       -0.4565
      9 C         138.4483  140.2003  161.2538 C.ar    1  UNL1        0.1459
     10 C         137.9504  140.8974  160.0224 C.ar    1  UNL1        0.0562
     11 C         138.4218  140.4563  158.6685 C.ar    1  UNL1        0.1133
     12 C         139.3911  139.3181  158.5459 C.ar    1  UNL1        0.0189
     13 C         139.8889  138.6210  159.7773 C.ar    1  UNL1        0.0041
     14 C         139.4175  139.0621  161.1312 C.ar    1  UNL1        0.0333
     15 H         139.3747  137.3973  165.9873 H       1  UNL1        0.1238
     16 C         138.8531  139.2697  166.4390 C.3     1  UNL1        0.4153
     17 F         138.6335  139.4018  167.9169 F       1  UNL1       -0.1682
     18 F         139.7572  140.4663  166.4665 F       1  UNL1       -0.1682
     19 F         137.9491  138.0732  166.4114 F       1  UNL1       -0.1682
     20 S         137.9240  141.1534  157.4371 S.O2    1  UNL1        0.0276
     21 O         137.9268  142.4592  158.1752 O.2     1  UNL1       -0.1642
     22 O         137.9212  139.8475  156.6990 O.2     1  UNL1       -0.1642
     23 C         137.4262  141.8505  156.2058 C.ar    1  UNL1        0.1125
     24 C         136.7962  141.0585  155.0986 C.ar    1  UNL1        0.0189
     25 C         136.2983  141.7556  153.8672 C.ar    1  UNL1        0.0036
     26 C         136.4305  143.2446  153.7431 C.ar    1  UNL1        0.0297
     27 C         137.0605  144.0365  154.8504 C.ar    1  UNL1        0.1414
     28 F         137.1927  145.5255  154.7262 F       1  UNL1       -0.2041
     29 C         137.5583  143.3394  156.0816 C.ar    1  UNL1        0.0484
@<TRIPOS>BOND
     1     1     2    1
     2     2    16    1
     3    16    17    1
     4    16    18    1
     5    16    19    1
     6     2     3    1
     7     3     4    1
     8     4     5    1
     9     5     6    1
    10     6     7   ar
    11     7     8   ar
    12     8     9   ar
    13     9    10   ar
    14    10    11   ar
    15    11    20    1
    16    20    21    2
    17    20    22    2
    18    20    23    1
    19    23    24   ar
    20    24    25   ar
    21    25    26   ar
    22    26    27   ar
    23    27    28    1
    24    27    29   ar
    25    11    12   ar
    26    12    13   ar
    27    13    14   ar
    28     7     2    1
    29    14     9   ar
    30    14     6   ar
    31    29    23   ar
    32     3    15    1
