@<TRIPOS>MOLECULE
*****
 45 50 0 0 0
SMALL
GASTEIGER

@<TRIPOS>ATOM
      1 C         137.9399  140.0911  161.8920 C.3     1  UNL1        0.0700
      2 C         138.1417  141.2294  160.9362 C.3     1  UNL1        0.0193
      3 C         138.0961  142.6437  161.4339 C.3     1  UNL1        0.0286
      4 C         137.8487  142.9196  162.8874 C.3     1  UNL1        0.0932
      5 C         137.6469  141.7813  163.8432 C.3     1  UNL1        0.0286
      6 C         137.6925  140.3670  163.3454 C.3     1  UNL1        0.0193
      7 O         137.8649  142.1280  162.6615 O.3     1  UNL1       -0.3572
      8 C         137.9062  140.8492  162.2115 C.3     1  UNL1        0.1562
      9 N         137.9856  138.6768  161.3942 N.3     1  UNL1       -0.2926
     10 H         137.5475  138.0982  162.1109 H       1  UNL1        0.1236
     11 C         139.3034  138.0386  161.0682 C.3     1  UNL1        0.1152
     12 O         145.9819  141.6701  162.7885 O.2     1  UNL1       -0.2707
     13 C         144.9301  140.6557  163.1273 C.2     1  UNL1        0.2718
     14 C         145.0528  139.8373  164.3784 C.3     1  UNL1        0.2898
     15 O         144.0011  138.8229  164.7172 O.3     1  UNL1       -0.4628
     16 C         142.8267  138.6268  163.8050 C.ar    1  UNL1        0.1708
     17 C         141.7749  137.6124  164.1438 C.ar    1  UNL1        0.0411
     18 C         140.6005  137.4163  163.2316 C.ar    1  UNL1        0.0193
     19 C         140.4778  138.2347  161.9804 C.ar    1  UNL1        0.0765
     20 N         141.5295  139.2491  161.6416 N.ar    1  UNL1       -0.2304
     21 C         142.7040  139.4452  162.5539 C.ar    1  UNL1        0.1682
     22 N         143.7557  140.4596  162.2151 N.am    1  UNL1       -0.2639
     23 H         143.6752  140.9967  161.3940 H       1  UNL1        0.1565
     24 C         137.8030  144.3339  163.3851 C.3     1  UNL1        0.0320
     25 C         138.8011  144.8039  164.4014 C.3     1  UNL1        0.0327
     26 C         140.2542  144.4710  164.2353 C.ar    1  UNL1        0.0261
     27 C         141.0537  145.1242  163.1471 C.ar    1  UNL1        0.1566
     28 F         140.4000  146.1103  162.2250 F       1  UNL1       -0.2028
     29 C         142.5068  144.7912  162.9809 C.ar    1  UNL1        0.1281
     30 N         143.1605  143.8051  163.9030 N.ar    1  UNL1       -0.2400
     31 C         142.3610  143.1519  164.9912 C.ar    1  UNL1        0.0990
     32 C         143.0147  142.1657  165.9132 C.ar    1  UNL1        0.0254
     33 C         142.2152  141.5125  167.0015 C.ar    1  UNL1        0.0593
     34 C         140.7621  141.8454  167.1676 C.ar    1  UNL1        0.2249
     35 N         140.1085  142.8316  166.2456 N.ar    1  UNL1       -0.2104
     36 C         140.9079  143.4848  165.1574 C.ar    1  UNL1        0.1002
     37 O         139.9627  141.1922  168.2558 O.3     1  UNL1       -0.4601
     38 C         140.5443  140.0458  169.0287 C.3     1  UNL1        0.2120
     39 C         141.3670  140.3086  170.2552 C.3     1  UNL1        0.1023
     40 C         140.9420  141.3655  171.2310 C.3     1  UNL1        0.1433
     41 O         141.9750  142.1806  171.9510 O.3     1  UNL1       -0.3818
     42 H         142.4836  141.6065  172.5449 H       1  UNL1        0.2104
     43 C         142.6147  139.5146  170.5057 C.3     1  UNL1        0.1433
     44 O         143.9046  140.2192  170.8049 O.3     1  UNL1       -0.3818
     45 H         144.1864  140.7227  170.0252 H       1  UNL1        0.2104
@<TRIPOS>BOND
     1    12    13    2
     2    13    14    1
     3    14    15    1
     4    15    16    1
     5    16    17   ar
     6    17    18   ar
     7    18    19   ar
     8    19    11    1
     9    11     9    1
    10     9     1    1
    11     1     2    1
    12     2     3    1
    13     3     4    1
    14     4    24    1
    15    24    25    1
    16    25    26    1
    17    26    27   ar
    18    27    28    1
    19    27    29   ar
    20    29    30   ar
    21    30    31   ar
    22    31    32   ar
    23    32    33   ar
    24    33    34   ar
    25    34    37    1
    26    37    38    1
    27    38    39    1
    28    39    40    1
    29    40    41    1
    30    39    43    1
    31    43    44    1
    32    34    35   ar
    33    35    36   ar
    34     4     5    1
    35     5     6    1
    36     4     7    1
    37     7     8    1
    38    19    20   ar
    39    20    21   ar
    40    21    22    1
    41    22    13   am
    42    21    16   ar
    43     6     1    1
    44     8     1    1
    45    36    26   ar
    46    36    31   ar
    47     9    10    1
    48    41    42    1
    49    44    45    1
    50    22    23    1
@<TRIPOS>MOLECULE
*****
 45 50 0 0 0
SMALL
GASTEIGER

@<TRIPOS>ATOM
      1 C         144.2762  139.7950  163.3547 C.3     1  UNL1        0.0700
      2 C         143.3565  139.3891  162.2414 C.3     1  UNL1        0.0193
      3 C         142.1131  138.6064  162.5433 C.3     1  UNL1        0.0286
      4 C         141.7893  138.2296  163.9587 C.3     1  UNL1        0.0932
      5 C         142.7089  138.6355  165.0720 C.3     1  UNL1        0.0286
      6 C         143.9524  139.4182  164.7700 C.3     1  UNL1        0.0193
      7 O         142.4821  138.6590  163.8423 O.3     1  UNL1       -0.3572
      8 C         143.6065  139.3667  163.5693 C.3     1  UNL1        0.1562
      9 N         145.5196  140.5777  163.0527 N.3     1  UNL1       -0.2926
     10 H         146.2863  140.1108  163.5369 H       1  UNL1        0.1236
     11 C         145.5983  142.0307  163.4172 C.3     1  UNL1        0.1152
     12 O         140.3574  145.4636  158.7806 O.2     1  UNL1       -0.2707
     13 C         140.9041  145.2021  160.1527 C.2     1  UNL1        0.2718
     14 C         140.2506  145.8234  161.3514 C.3     1  UNL1        0.2898
     15 O         140.7974  145.5619  162.7235 O.3     1  UNL1       -0.4628
     16 C         141.9976  144.6791  162.8970 C.ar    1  UNL1        0.1708
     17 C         142.5443  144.4176  164.2691 C.ar    1  UNL1        0.0411
     18 C         143.7445  143.5348  164.4425 C.ar    1  UNL1        0.0193
     19 C         144.3981  142.9135  163.2438 C.ar    1  UNL1        0.0765
     20 N         143.8513  143.1750  161.8717 N.ar    1  UNL1       -0.2304
     21 C         142.6510  144.0578  161.6983 C.ar    1  UNL1        0.1682
     22 N         142.1043  144.3193  160.3262 N.am    1  UNL1       -0.2639
     23 H         142.5332  143.9115  159.5394 H       1  UNL1        0.1565
     24 C         140.5459  137.4469  164.2607 C.3     1  UNL1        0.0320
     25 C         139.2913  138.1603  164.6694 C.3     1  UNL1        0.0327
     26 C         138.7393  139.2588  163.8101 C.ar    1  UNL1        0.0261
     27 C         138.0695  138.9287  162.5091 C.ar    1  UNL1        0.1566
     28 F         137.9516  137.5000  162.0675 F       1  UNL1       -0.2028
     29 C         137.5175  140.0273  161.6498 C.ar    1  UNL1        0.1281
     30 N         137.6353  141.4559  162.0914 N.ar    1  UNL1       -0.2400
     31 C         138.3051  141.7861  163.3922 C.ar    1  UNL1        0.0990
     32 C         138.4229  143.2148  163.8338 C.ar    1  UNL1        0.0254
     33 C         139.0927  143.5449  165.1348 C.ar    1  UNL1        0.0593
     34 C         139.6447  142.4463  165.9941 C.ar    1  UNL1        0.2249
     35 N         139.5269  141.0177  165.5525 N.ar    1  UNL1       -0.2104
     36 C         138.8571  140.6875  164.2516 C.ar    1  UNL1        0.1002
     37 O         140.3145  142.7765  167.2950 O.3     1  UNL1       -0.4601
     38 C         140.7866  141.6744  168.1964 C.3     1  UNL1        0.2120
     39 C         140.1878  141.5144  169.5624 C.3     1  UNL1        0.1023
     40 C         139.3899  140.2879  169.8926 C.3     1  UNL1        0.1433
     41 O         139.6479  139.5471  171.1711 O.3     1  UNL1       -0.3818
     42 H         140.5372  139.1605  171.1470 H       1  UNL1        0.2104
     43 C         140.3870  142.5810  170.5982 C.3     1  UNL1        0.1433
     44 O         140.3841  142.2219  172.0545 O.3     1  UNL1       -0.3818
     45 H         139.5013  141.9111  172.3092 H       1  UNL1        0.2104
@<TRIPOS>BOND
     1    12    13    2
     2    13    14    1
     3    14    15    1
     4    15    16    1
     5    16    17   ar
     6    17    18   ar
     7    18    19   ar
     8    19    11    1
     9    11     9    1
    10     9     1    1
    11     1     2    1
    12     2     3    1
    13     3     4    1
    14     4    24    1
    15    24    25    1
    16    25    26    1
    17    26    27   ar
    18    27    28    1
    19    27    29   ar
    20    29    30   ar
    21    30    31   ar
    22    31    32   ar
    23    32    33   ar
    24    33    34   ar
    25    34    37    1
    26    37    38    1
    27    38    39    1
    28    39    40    1
    29    40    41    1
    30    39    43    1
    31    43    44    1
    32    34    35   ar
    33    35    36   ar
    34     4     5    1
    35     5     6    1
    36     4     7    1
    37     7     8    1
    38    19    20   ar
    39    20    21   ar
    40    21    22    1
    41    22    13   am
    42    21    16   ar
    43     6     1    1
    44     8     1    1
    45    36    26   ar
    46    36    31   ar
    47     9    10    1
    48    41    42    1
    49    44    45    1
    50    22    23    1
@<TRIPOS>MOLECULE
*****
 45 50 0 0 0
SMALL
GASTEIGER

@<TRIPOS>ATOM
      1 C         137.9676  140.0936  161.9181 C.3     1  UNL1        0.0700
      2 C         137.7126  140.4192  163.3600 C.3     1  UNL1        0.0193
      3 C         137.6822  141.8491  163.8120 C.3     1  UNL1        0.0286
      4 C         137.9068  142.9535  162.8220 C.3     1  UNL1        0.0932
      5 C         138.1618  142.6279  161.3802 C.3     1  UNL1        0.0286
      6 C         138.1922  141.1979  160.9282 C.3     1  UNL1        0.0193
      7 O         137.9328  142.1852  162.5272 O.3     1  UNL1       -0.3572
      8 C         137.9602  140.8922  162.1185 C.3     1  UNL1        0.1562
      9 N         137.9979  138.6636  161.4662 N.3     1  UNL1       -0.2926
     10 H         137.7306  138.0951  162.2697 H       1  UNL1        0.1236
     11 C         139.2663  138.0757  160.9224 C.3     1  UNL1        0.1152
     12 O         143.8186  138.1207  167.2489 O.2     1  UNL1       -0.2707
     13 C         143.6142  138.4204  165.7934 C.2     1  UNL1        0.2718
     14 C         144.7228  139.0349  164.9913 C.3     1  UNL1        0.2898
     15 O         144.5184  139.3346  163.5358 O.3     1  UNL1       -0.4628
     16 C         143.2054  139.0199  162.8825 C.ar    1  UNL1        0.1708
     17 C         143.0010  139.3197  161.4270 C.ar    1  UNL1        0.0411
     18 C         141.6880  139.0049  160.7736 C.ar    1  UNL1        0.0193
     19 C         140.5793  138.3904  161.5758 C.ar    1  UNL1        0.0765
     20 N         140.7837  138.0907  163.0312 N.ar    1  UNL1       -0.2304
     21 C         142.0968  138.4054  163.6846 C.ar    1  UNL1        0.1682
     22 N         142.3012  138.1057  165.1400 N.am    1  UNL1       -0.2639
     23 H         141.5736  137.7024  165.6665 H       1  UNL1        0.1565
     24 C         137.8765  144.3835  163.2740 C.3     1  UNL1        0.0320
     25 C         138.8635  144.8688  164.2939 C.3     1  UNL1        0.0327
     26 C         140.3163  144.5220  164.1560 C.ar    1  UNL1        0.0261
     27 C         141.1435  145.1690  163.0849 C.ar    1  UNL1        0.1566
     28 F         140.5179  146.1629  162.1518 F       1  UNL1       -0.2028
     29 C         142.5963  144.8221  162.9470 C.ar    1  UNL1        0.1281
     30 N         143.2220  143.8282  163.8802 N.ar    1  UNL1       -0.2400
     31 C         142.3948  143.1812  164.9512 C.ar    1  UNL1        0.0990
     32 C         143.0205  142.1873  165.8843 C.ar    1  UNL1        0.0254
     33 C         142.1933  141.5403  166.9554 C.ar    1  UNL1        0.0593
     34 C         140.7405  141.8871  167.0933 C.ar    1  UNL1        0.2249
     35 N         140.1148  142.8810  166.1602 N.ar    1  UNL1       -0.2104
     36 C         140.9420  143.5281  165.0891 C.ar    1  UNL1        0.1002
     37 O         139.9133  141.2401  168.1643 O.3     1  UNL1       -0.4601
     38 C         140.4929  140.1322  168.9930 C.3     1  UNL1        0.2120
     39 C         141.3701  140.4535  170.1666 C.3     1  UNL1        0.1023
     40 C         140.9750  141.5391  171.1233 C.3     1  UNL1        0.1433
     41 O         142.0026  142.1527  172.0273 O.3     1  UNL1       -0.3818
     42 H         142.3170  141.4867  172.6585 H       1  UNL1        0.2104
     43 C         142.6423  139.6891  170.3835 C.3     1  UNL1        0.1433
     44 O         143.8839  140.4081  170.8209 O.3     1  UNL1       -0.3818
     45 H         144.1739  141.0098  170.1175 H       1  UNL1        0.2104
@<TRIPOS>BOND
     1    12    13    2
     2    13    14    1
     3    14    15    1
     4    15    16    1
     5    16    17   ar
     6    17    18   ar
     7    18    19   ar
     8    19    11    1
     9    11     9    1
    10     9     1    1
    11     1     2    1
    12     2     3    1
    13     3     4    1
    14     4    24    1
    15    24    25    1
    16    25    26    1
    17    26    27   ar
    18    27    28    1
    19    27    29   ar
    20    29    30   ar
    21    30    31   ar
    22    31    32   ar
    23    32    33   ar
    24    33    34   ar
    25    34    37    1
    26    37    38    1
    27    38    39    1
    28    39    40    1
    29    40    41    1
    30    39    43    1
    31    43    44    1
    32    34    35   ar
    33    35    36   ar
    34     4     5    1
    35     5     6    1
    36     4     7    1
    37     7     8    1
    38    19    20   ar
    39    20    21   ar
    40    21    22    1
    41    22    13   am
    42    21    16   ar
    43     6     1    1
    44     8     1    1
    45    36    26   ar
    46    36    31   ar
    47     9    10    1
    48    41    42    1
    49    44    45    1
    50    22    23    1
@<TRIPOS>MOLECULE
*****
 45 50 0 0 0
SMALL
GASTEIGER

@<TRIPOS>ATOM
      1 C         142.2050  144.5694  163.4099 C.3     1  UNL1        0.0700
      2 C         143.2348  144.1306  162.4114 C.3     1  UNL1        0.0193
      3 C         144.0113  142.8678  162.6406 C.3     1  UNL1        0.0286
      4 C         143.7579  142.0439  163.8682 C.3     1  UNL1        0.0932
      5 C         142.7281  142.4827  164.8666 C.3     1  UNL1        0.0286
      6 C         141.9516  143.7455  164.6374 C.3     1  UNL1        0.0193
      7 O         143.3076  142.7282  163.7859 O.3     1  UNL1       -0.3572
      8 C         142.6055  143.8700  163.5787 C.3     1  UNL1        0.1562
      9 N         141.4285  145.8321  163.1807 N.3     1  UNL1       -0.2926
     10 H         141.1812  146.1968  164.1007 H       1  UNL1        0.1236
     11 C         140.1644  145.7994  162.3738 C.3     1  UNL1        0.1152
     12 O         138.7230  139.3120  158.3012 O.2     1  UNL1       -0.2707
     13 C         138.4543  140.1858  159.4904 C.2     1  UNL1        0.2718
     14 C         137.4366  139.7711  160.5113 C.3     1  UNL1        0.2898
     15 O         137.1680  140.6450  161.7005 O.3     1  UNL1       -0.4628
     16 C         137.9170  141.9336  161.8688 C.ar    1  UNL1        0.1708
     17 C         137.6484  142.8074  163.0580 C.ar    1  UNL1        0.0411
     18 C         138.3975  144.0960  163.2264 C.ar    1  UNL1        0.0193
     19 C         139.4153  144.5108  162.2055 C.ar    1  UNL1        0.0765
     20 N         139.6839  143.6369  161.0163 N.ar    1  UNL1       -0.2304
     21 C         138.9348  142.3483  160.8480 C.ar    1  UNL1        0.1682
     22 N         139.2034  141.4744  159.6588 N.am    1  UNL1       -0.2639
     23 H         139.8714  141.7466  158.9888 H       1  UNL1        0.1565
     24 C         144.5344  140.7811  164.0973 C.3     1  UNL1        0.0320
     25 C         143.8387  139.5557  164.6115 C.3     1  UNL1        0.0327
     26 C         142.7631  138.9050  163.7932 C.ar    1  UNL1        0.0261
     27 C         143.0807  138.3646  162.4305 C.ar    1  UNL1        0.1566
     28 F         144.4740  138.4749  161.8860 F       1  UNL1       -0.2028
     29 C         142.0051  137.7139  161.6122 C.ar    1  UNL1        0.1281
     30 N         140.6117  137.6036  162.1567 N.ar    1  UNL1       -0.2400
     31 C         140.2941  138.1439  163.5194 C.ar    1  UNL1        0.0990
     32 C         138.9007  138.0336  164.0639 C.ar    1  UNL1        0.0254
     33 C         138.5831  138.5740  165.4267 C.ar    1  UNL1        0.0593
     34 C         139.6587  139.2247  166.2449 C.ar    1  UNL1        0.2249
     35 N         141.0520  139.3351  165.7004 N.ar    1  UNL1       -0.2104
     36 C         141.3697  138.7947  164.3377 C.ar    1  UNL1        0.1002
     37 O         139.3410  139.7651  167.6076 O.3     1  UNL1       -0.4601
     38 C         140.0721  140.9677  168.1267 C.3     1  UNL1        0.2120
     39 C         140.0277  141.2989  169.5891 C.3     1  UNL1        0.1023
     40 C         139.9868  140.1976  170.6066 C.3     1  UNL1        0.1433
     41 O         140.6129  140.3984  171.9548 O.3     1  UNL1       -0.3818
     42 H         141.5732  140.4913  171.8547 H       1  UNL1        0.2104
     43 C         140.0241  142.7314  170.0339 C.3     1  UNL1        0.1433
     44 O         139.4854  143.0957  171.3855 O.3     1  UNL1       -0.3818
     45 H         138.5329  142.9147  171.4135 H       1  UNL1        0.2104
@<TRIPOS>BOND
     1    12    13    2
     2    13    14    1
     3    14    15    1
     4    15    16    1
     5    16    17   ar
     6    17    18   ar
     7    18    19   ar
     8    19    11    1
     9    11     9    1
    10     9     1    1
    11     1     2    1
    12     2     3    1
    13     3     4    1
    14     4    24    1
    15    24    25    1
    16    25    26    1
    17    26    27   ar
    18    27    28    1
    19    27    29   ar
    20    29    30   ar
    21    30    31   ar
    22    31    32   ar
    23    32    33   ar
    24    33    34   ar
    25    34    37    1
    26    37    38    1
    27    38    39    1
    28    39    40    1
    29    40    41    1
    30    39    43    1
    31    43    44    1
    32    34    35   ar
    33    35    36   ar
    34     4     5    1
    35     5     6    1
    36     4     7    1
    37     7     8    1
    38    19    20   ar
    39    20    21   ar
    40    21    22    1
    41    22    13   am
    42    21    16   ar
    43     6     1    1
    44     8     1    1
    45    36    26   ar
    46    36    31   ar
    47     9    10    1
    48    41    42    1
    49    44    45    1
    50    22    23    1
@<TRIPOS>MOLECULE
*****
 45 50 0 0 0
SMALL
GASTEIGER

@<TRIPOS>ATOM
      1 C         137.9046  142.9611  162.9676 C.3     1  UNL1        0.0700
      2 C         137.9505  142.6666  164.4376 C.3     1  UNL1        0.0193
      3 C         138.1879  141.2645  164.9146 C.3     1  UNL1        0.0286
      4 C         138.3795  140.1567  163.9215 C.3     1  UNL1        0.0932
      5 C         138.3336  140.4512  162.4514 C.3     1  UNL1        0.0286
      6 C         138.0961  141.8534  161.9744 C.3     1  UNL1        0.0193
      7 O         138.2522  140.9092  163.6124 O.3     1  UNL1       -0.3572
      8 C         138.0375  142.1770  163.1810 C.3     1  UNL1        0.1562
      9 N         137.6671  144.3632  162.4906 N.3     1  UNL1       -0.2926
     10 H         137.3173  144.2939  161.5350 H       1  UNL1        0.1236
     11 C         138.7975  145.3491  162.4674 C.3     1  UNL1        0.1152
     12 O         144.4856  141.7600  158.5286 O.2     1  UNL1       -0.2707
     13 C         144.0065  142.4711  159.7594 C.2     1  UNL1        0.2718
     14 C         144.9443  142.6969  160.9081 C.3     1  UNL1        0.2898
     15 O         144.4652  143.4080  162.1389 O.3     1  UNL1       -0.4628
     16 C         143.0483  143.8933  162.2210 C.ar    1  UNL1        0.1708
     17 C         142.5692  144.6043  163.4518 C.ar    1  UNL1        0.0411
     18 C         141.1523  145.0896  163.5339 C.ar    1  UNL1        0.0193
     19 C         140.2144  144.8638  162.3852 C.ar    1  UNL1        0.0765
     20 N         140.6935  144.1528  161.1544 N.ar    1  UNL1       -0.2304
     21 C         142.1105  143.6675  161.0724 C.ar    1  UNL1        0.1682
     22 N         142.5896  142.9564  159.8416 N.am    1  UNL1       -0.2639
     23 H         141.9740  142.8082  159.0877 H       1  UNL1        0.1565
     24 C         138.6169  138.7546  164.3985 C.3     1  UNL1        0.0320
     25 C         139.9188  138.3946  165.0509 C.3     1  UNL1        0.0327
     26 C         141.2108  138.8854  164.4679 C.ar    1  UNL1        0.0261
     27 C         141.7800  138.2277  163.2458 C.ar    1  UNL1        0.1566
     28 F         141.0572  137.0792  162.6067 F       1  UNL1       -0.2028
     29 C         143.0720  138.7186  162.6628 C.ar    1  UNL1        0.1281
     30 N         143.7948  139.8671  163.3020 N.ar    1  UNL1       -0.2400
     31 C         143.2256  140.5248  164.5240 C.ar    1  UNL1        0.0990
     32 C         143.9485  141.6733  165.1631 C.ar    1  UNL1        0.0254
     33 C         143.3793  142.3310  166.3852 C.ar    1  UNL1        0.0593
     34 C         142.0873  141.8401  166.9682 C.ar    1  UNL1        0.2249
     35 N         141.3645  140.6916  166.3291 N.ar    1  UNL1       -0.2104
     36 C         141.9336  140.0339  165.1070 C.ar    1  UNL1        0.1002
     37 O         141.5182  142.4978  168.1902 O.3     1  UNL1       -0.4601
     38 C         141.8337  141.9522  169.5514 C.3     1  UNL1        0.2120
     39 C         141.4090  140.5612  169.9188 C.3     1  UNL1        0.1023
     40 C         142.3926  139.4314  169.8401 C.3     1  UNL1        0.1433
     41 O         142.9526  139.0157  168.5122 O.3     1  UNL1       -0.3818
     42 H         142.2422  138.6510  167.9615 H       1  UNL1        0.2104
     43 C         140.0009  140.3001  170.3647 C.3     1  UNL1        0.1433
     44 O         139.7299  139.2902  171.4402 O.3     1  UNL1       -0.3818
     45 H         139.9654  138.4055  171.1198 H       1  UNL1        0.2104
@<TRIPOS>BOND
     1    12    13    2
     2    13    14    1
     3    14    15    1
     4    15    16    1
     5    16    17   ar
     6    17    18   ar
     7    18    19   ar
     8    19    11    1
     9    11     9    1
    10     9     1    1
    11     1     2    1
    12     2     3    1
    13     3     4    1
    14     4    24    1
    15    24    25    1
    16    25    26    1
    17    26    27   ar
    18    27    28    1
    19    27    29   ar
    20    29    30   ar
    21    30    31   ar
    22    31    32   ar
    23    32    33   ar
    24    33    34   ar
    25    34    37    1
    26    37    38    1
    27    38    39    1
    28    39    40    1
    29    40    41    1
    30    39    43    1
    31    43    44    1
    32    34    35   ar
    33    35    36   ar
    34     4     5    1
    35     5     6    1
    36     4     7    1
    37     7     8    1
    38    19    20   ar
    39    20    21   ar
    40    21    22    1
    41    22    13   am
    42    21    16   ar
    43     6     1    1
    44     8     1    1
    45    36    26   ar
    46    36    31   ar
    47     9    10    1
    48    41    42    1
    49    44    45    1
    50    22    23    1
@<TRIPOS>MOLECULE
*****
 45 50 0 0 0
SMALL
GASTEIGER

@<TRIPOS>ATOM
      1 C         141.5468  144.3145  163.2753 C.3     1  UNL1        0.0700
      2 C         140.5813  143.8176  162.2404 C.3     1  UNL1        0.0193
      3 C         139.3871  143.0103  162.6550 C.3     1  UNL1        0.0286
      4 C         139.1583  142.6997  164.1046 C.3     1  UNL1        0.0932
      5 C         140.1238  143.1966  165.1395 C.3     1  UNL1        0.0286
      6 C         141.3180  144.0040  164.7248 C.3     1  UNL1        0.0193
      7 O         139.8269  143.1457  163.9257 O.3     1  UNL1       -0.3572
      8 C         140.9068  143.8757  163.5507 C.3     1  UNL1        0.1562
      9 N         142.7410  145.1218  162.8606 N.3     1  UNL1       -0.2926
     10 H         142.5232  145.5225  161.9482 H       1  UNL1        0.1236
     11 C         144.0838  144.4650  162.7357 C.3     1  UNL1        0.1152
     12 O         143.0266  137.8547  158.7436 O.2     1  UNL1       -0.2707
     13 C         143.4778  138.5640  159.9860 C.2     1  UNL1        0.2718
     14 C         144.0276  137.7792  161.1399 C.3     1  UNL1        0.2898
     15 O         144.4787  138.4885  162.3823 O.3     1  UNL1       -0.4628
     16 C         144.3800  139.9826  162.4706 C.ar    1  UNL1        0.1708
     17 C         144.8311  140.6919  163.7130 C.ar    1  UNL1        0.0411
     18 C         144.7324  142.1860  163.8014 C.ar    1  UNL1        0.0193
     19 C         144.1825  142.9709  162.6474 C.ar    1  UNL1        0.0765
     20 N         143.7314  142.2616  161.4050 N.ar    1  UNL1       -0.2304
     21 C         143.8301  140.7674  161.3167 C.ar    1  UNL1        0.1682
     22 N         143.3790  140.0581  160.0743 N.am    1  UNL1       -0.2639
     23 H         143.0181  140.5733  159.3170 H       1  UNL1        0.1565
     24 C         137.9641  141.8923  164.5193 C.3     1  UNL1        0.0320
     25 C         138.1501  140.5212  165.0983 C.3     1  UNL1        0.0327
     26 C         139.1663  139.5892  164.5078 C.ar    1  UNL1        0.0261
     27 C         138.8997  138.9276  163.1881 C.ar    1  UNL1        0.1566
     28 F         137.6170  139.1980  162.4591 F       1  UNL1       -0.2028
     29 C         139.9159  137.9956  162.5976 C.ar    1  UNL1        0.1281
     30 N         141.1986  137.7252  163.3266 N.ar    1  UNL1       -0.2400
     31 C         141.4652  138.3867  164.6462 C.ar    1  UNL1        0.0990
     32 C         142.7479  138.1163  165.3752 C.ar    1  UNL1        0.0254
     33 C         143.0145  138.7779  166.6948 C.ar    1  UNL1        0.0593
     34 C         141.9983  139.7099  167.2854 C.ar    1  UNL1        0.2249
     35 N         140.7156  139.9803  166.5563 N.ar    1  UNL1       -0.2104
     36 C         140.4490  139.3188  165.2368 C.ar    1  UNL1        0.1002
     37 O         142.2648  140.3714  168.6049 O.3     1  UNL1       -0.4601
     38 C         141.6635  141.7120  168.9069 C.3     1  UNL1        0.2120
     39 C         140.4584  141.8106  169.7946 C.3     1  UNL1        0.1023
     40 C         139.7154  140.5693  170.1912 C.3     1  UNL1        0.1433
     41 O         140.4627  139.3927  170.7452 O.3     1  UNL1       -0.3818
     42 H         141.0400  139.0239  170.0585 H       1  UNL1        0.2104
     43 C         139.9962  143.1504  170.2857 C.3     1  UNL1        0.1433
     44 O         140.9521  144.3058  170.3237 O.3     1  UNL1       -0.3818
     45 H         141.6501  144.1267  170.9731 H       1  UNL1        0.2104
@<TRIPOS>BOND
     1    12    13    2
     2    13    14    1
     3    14    15    1
     4    15    16    1
     5    16    17   ar
     6    17    18   ar
     7    18    19   ar
     8    19    11    1
     9    11     9    1
    10     9     1    1
    11     1     2    1
    12     2     3    1
    13     3     4    1
    14     4    24    1
    15    24    25    1
    16    25    26    1
    17    26    27   ar
    18    27    28    1
    19    27    29   ar
    20    29    30   ar
    21    30    31   ar
    22    31    32   ar
    23    32    33   ar
    24    33    34   ar
    25    34    37    1
    26    37    38    1
    27    38    39    1
    28    39    40    1
    29    40    41    1
    30    39    43    1
    31    43    44    1
    32    34    35   ar
    33    35    36   ar
    34     4     5    1
    35     5     6    1
    36     4     7    1
    37     7     8    1
    38    19    20   ar
    39    20    21   ar
    40    21    22    1
    41    22    13   am
    42    21    16   ar
    43     6     1    1
    44     8     1    1
    45    36    26   ar
    46    36    31   ar
    47     9    10    1
    48    41    42    1
    49    44    45    1
    50    22    23    1
@<TRIPOS>MOLECULE
*****
 45 50 0 0 0
SMALL
GASTEIGER

@<TRIPOS>ATOM
      1 C         139.6187  137.8745  162.7415 C.3     1  UNL1        0.0700
      2 C         139.4950  138.1053  164.2184 C.3     1  UNL1        0.0193
      3 C         140.7271  138.2764  165.0566 C.3     1  UNL1        0.0286
      4 C         142.0831  138.2167  164.4177 C.3     1  UNL1        0.0932
      5 C         142.2067  137.9859  162.9408 C.3     1  UNL1        0.0286
      6 C         140.9745  137.8148  162.1026 C.3     1  UNL1        0.0193
      7 O         141.4367  138.1173  163.9175 O.3     1  UNL1       -0.3572
      8 C         140.3225  137.9626  163.1596 C.3     1  UNL1        0.1562
      9 N         138.3865  137.7034  161.9034 N.3     1  UNL1       -0.2926
     10 H         138.4924  136.8222  161.4006 H       1  UNL1        0.1236
     11 C         138.0223  138.7422  160.8844 C.3     1  UNL1        0.1152
     12 O         141.7410  145.4119  159.3236 O.2     1  UNL1       -0.2707
     13 C         140.7419  144.6406  160.1340 C.2     1  UNL1        0.2718
     14 C         139.9833  145.3211  161.2346 C.3     1  UNL1        0.2898
     15 O         138.9842  144.5497  162.0451 O.3     1  UNL1       -0.4628
     16 C         138.7437  143.0979  161.7549 C.ar    1  UNL1        0.1708
     17 C         137.7446  142.3265  162.5654 C.ar    1  UNL1        0.0411
     18 C         137.5041  140.8747  162.2752 C.ar    1  UNL1        0.0193
     19 C         138.2628  140.1941  161.1746 C.ar    1  UNL1        0.0765
     20 N         139.2619  140.9654  160.3641 N.ar    1  UNL1       -0.2304
     21 C         139.5023  142.4174  160.6543 C.ar    1  UNL1        0.1682
     22 N         140.5014  143.1887  159.8439 N.am    1  UNL1       -0.2639
     23 H         140.9993  142.7421  159.1215 H       1  UNL1        0.1565
     24 C         143.3152  138.3878  165.2559 C.3     1  UNL1        0.0320
     25 C         143.9772  139.7305  165.3507 C.3     1  UNL1        0.0327
     26 C         143.4234  140.8955  164.5853 C.ar    1  UNL1        0.0261
     27 C         143.9969  141.2542  163.2464 C.ar    1  UNL1        0.1566
     28 F         145.1242  140.4477  162.6730 F       1  UNL1       -0.2028
     29 C         143.4431  142.4192  162.4810 C.ar    1  UNL1        0.1281
     30 N         142.3158  143.2257  163.0545 N.ar    1  UNL1       -0.2400
     31 C         141.7424  142.8672  164.3933 C.ar    1  UNL1        0.0990
     32 C         140.6151  143.6737  164.9667 C.ar    1  UNL1        0.0254
     33 C         140.0416  143.3150  166.3056 C.ar    1  UNL1        0.0593
     34 C         140.5954  142.1500  167.0710 C.ar    1  UNL1        0.2249
     35 N         141.7227  141.3435  166.4976 N.ar    1  UNL1       -0.2104
     36 C         142.2962  141.7020  165.1588 C.ar    1  UNL1        0.1002
     37 O         140.0220  141.7914  168.4099 O.3     1  UNL1       -0.4601
     38 C         140.1834  140.4001  168.9467 C.3     1  UNL1        0.2120
     39 C         141.1162  140.1419  170.0927 C.3     1  UNL1        0.1023
     40 C         142.2855  139.2194  169.9149 C.3     1  UNL1        0.1433
     41 O         143.0230  139.1864  168.6092 O.3     1  UNL1       -0.3818
     42 H         142.4380  138.8425  167.9160 H       1  UNL1        0.2104
     43 C         140.8797  140.8063  171.4166 C.3     1  UNL1        0.1433
     44 O         140.4108  142.2302  171.4679 O.3     1  UNL1       -0.3818
     45 H         141.1029  142.8115  171.1159 H       1  UNL1        0.2104
@<TRIPOS>BOND
     1    12    13    2
     2    13    14    1
     3    14    15    1
     4    15    16    1
     5    16    17   ar
     6    17    18   ar
     7    18    19   ar
     8    19    11    1
     9    11     9    1
    10     9     1    1
    11     1     2    1
    12     2     3    1
    13     3     4    1
    14     4    24    1
    15    24    25    1
    16    25    26    1
    17    26    27   ar
    18    27    28    1
    19    27    29   ar
    20    29    30   ar
    21    30    31   ar
    22    31    32   ar
    23    32    33   ar
    24    33    34   ar
    25    34    37    1
    26    37    38    1
    27    38    39    1
    28    39    40    1
    29    40    41    1
    30    39    43    1
    31    43    44    1
    32    34    35   ar
    33    35    36   ar
    34     4     5    1
    35     5     6    1
    36     4     7    1
    37     7     8    1
    38    19    20   ar
    39    20    21   ar
    40    21    22    1
    41    22    13   am
    42    21    16   ar
    43     6     1    1
    44     8     1    1
    45    36    26   ar
    46    36    31   ar
    47     9    10    1
    48    41    42    1
    49    44    45    1
    50    22    23    1
@<TRIPOS>MOLECULE
*****
 45 50 0 0 0
SMALL
GASTEIGER

@<TRIPOS>ATOM
      1 C         144.0625  139.7219  163.8249 C.3     1  UNL1        0.0700
      2 C         143.7897  138.9916  165.1064 C.3     1  UNL1        0.0193
      3 C         143.2420  139.7327  166.2900 C.3     1  UNL1        0.0286
      4 C         142.9672  141.2041  166.1920 C.3     1  UNL1        0.0932
      5 C         143.2401  141.9344  164.9105 C.3     1  UNL1        0.0286
      6 C         143.7877  141.1932  163.7269 C.3     1  UNL1        0.0193
      7 O         143.2672  140.8408  165.5168 O.3     1  UNL1       -0.3572
      8 C         143.7624  140.1707  164.4466 C.3     1  UNL1        0.1562
      9 N         144.6102  138.9808  162.6414 N.3     1  UNL1       -0.2926
     10 H         144.8722  139.6831  161.9496 H       1  UNL1        0.1236
     11 C         143.7603  137.9693  161.9309 C.3     1  UNL1        0.1152
     12 O         137.9417  141.5837  158.2121 O.2     1  UNL1       -0.2707
     13 C         138.4136  140.6287  159.2681 C.2     1  UNL1        0.2718
     14 C         137.4179  139.9234  160.1405 C.3     1  UNL1        0.2898
     15 O         137.8899  138.9684  161.1966 O.3     1  UNL1       -0.4628
     16 C         139.3574  138.7186  161.3801 C.ar    1  UNL1        0.1708
     17 C         139.8293  137.7635  162.4362 C.ar    1  UNL1        0.0411
     18 C         141.2969  137.5138  162.6198 C.ar    1  UNL1        0.0193
     19 C         142.2927  138.2191  161.7473 C.ar    1  UNL1        0.0765
     20 N         141.8208  139.1741  160.6913 N.ar    1  UNL1       -0.2304
     21 C         140.3531  139.4239  160.5077 C.ar    1  UNL1        0.1682
     22 N         139.8812  140.3789  159.4517 N.am    1  UNL1       -0.2639
     23 H         140.5347  140.8418  158.8791 H       1  UNL1        0.1565
     24 C         142.4196  141.9452  167.3756 C.3     1  UNL1        0.0320
     25 C         140.9589  142.2801  167.4405 C.3     1  UNL1        0.0327
     26 C         139.9511  141.3663  166.8088 C.ar    1  UNL1        0.0261
     27 C         139.6134  140.0577  167.4596 C.ar    1  UNL1        0.1566
     28 F         140.2835  139.6630  168.7422 F       1  UNL1       -0.2028
     29 C         138.6056  139.1438  166.8279 C.ar    1  UNL1        0.1281
     30 N         137.9354  139.5386  165.5452 N.ar    1  UNL1       -0.2400
     31 C         138.2730  140.8471  164.8944 C.ar    1  UNL1        0.0990
     32 C         137.6029  141.2418  163.6118 C.ar    1  UNL1        0.0254
     33 C         137.9406  142.5504  162.9609 C.ar    1  UNL1        0.0593
     34 C         138.9484  143.4643  163.5927 C.ar    1  UNL1        0.2249
     35 N         139.6186  143.0696  164.8753 N.ar    1  UNL1       -0.2104
     36 C         139.2809  141.7610  165.5262 C.ar    1  UNL1        0.1002
     37 O         139.2861  144.7728  162.9418 O.3     1  UNL1       -0.4601
     38 C         140.6335  145.3942  163.1617 C.3     1  UNL1        0.2120
     39 C         141.8443  144.8166  162.4906 C.3     1  UNL1        0.1023
     40 C         141.7186  144.1727  161.1417 C.3     1  UNL1        0.1433
     41 O         141.0688  142.8271  161.0106 O.3     1  UNL1       -0.3818
     42 H         141.6126  142.1604  161.4587 H       1  UNL1        0.2104
     43 C         143.1808  144.8830  163.1684 C.3     1  UNL1        0.1433
     44 O         144.4280  144.5602  162.4002 O.3     1  UNL1       -0.3818
     45 H         144.4198  143.6234  162.1490 H       1  UNL1        0.2104
@<TRIPOS>BOND
     1    12    13    2
     2    13    14    1
     3    14    15    1
     4    15    16    1
     5    16    17   ar
     6    17    18   ar
     7    18    19   ar
     8    19    11    1
     9    11     9    1
    10     9     1    1
    11     1     2    1
    12     2     3    1
    13     3     4    1
    14     4    24    1
    15    24    25    1
    16    25    26    1
    17    26    27   ar
    18    27    28    1
    19    27    29   ar
    20    29    30   ar
    21    30    31   ar
    22    31    32   ar
    23    32    33   ar
    24    33    34   ar
    25    34    37    1
    26    37    38    1
    27    38    39    1
    28    39    40    1
    29    40    41    1
    30    39    43    1
    31    43    44    1
    32    34    35   ar
    33    35    36   ar
    34     4     5    1
    35     5     6    1
    36     4     7    1
    37     7     8    1
    38    19    20   ar
    39    20    21   ar
    40    21    22    1
    41    22    13   am
    42    21    16   ar
    43     6     1    1
    44     8     1    1
    45    36    26   ar
    46    36    31   ar
    47     9    10    1
    48    41    42    1
    49    44    45    1
    50    22    23    1
@<TRIPOS>MOLECULE
*****
 45 50 0 0 0
SMALL
GASTEIGER

@<TRIPOS>ATOM
      1 C         139.9481  140.3094  167.0341 C.3     1  UNL1        0.0700
      2 C         139.9148  141.7544  166.6331 C.3     1  UNL1        0.0193
      3 C         139.0669  142.1923  165.4758 C.3     1  UNL1        0.0286
      4 C         138.2522  141.1851  164.7195 C.3     1  UNL1        0.0932
      5 C         138.2855  139.7400  165.1206 C.3     1  UNL1        0.0286
      6 C         139.1335  139.3023  166.2779 C.3     1  UNL1        0.0193
      7 O         138.7016  140.8976  165.3467 O.3     1  UNL1       -0.3572
      8 C         139.4683  140.5017  166.3931 C.3     1  UNL1        0.1562
      9 N         140.7960  139.8716  168.1914 N.3     1  UNL1       -0.2926
     10 H         140.6386  140.5435  168.9425 H       1  UNL1        0.1236
     11 C         142.2818  139.7457  168.0273 C.3     1  UNL1        0.1152
     12 O         144.5772  144.5582  162.3422 O.2     1  UNL1       -0.2707
     13 C         144.4390  143.1693  162.8916 C.2     1  UNL1        0.2718
     14 C         144.9276  141.9957  162.0955 C.3     1  UNL1        0.2898
     15 O         144.7894  140.6068  162.6450 O.3     1  UNL1       -0.4628
     16 C         144.1625  140.3915  163.9905 C.ar    1  UNL1        0.1708
     17 C         144.0242  139.0026  164.5400 C.ar    1  UNL1        0.0411
     18 C         143.3973  138.7873  165.8855 C.ar    1  UNL1        0.0193
     19 C         142.9086  139.9610  166.6817 C.ar    1  UNL1        0.0765
     20 N         143.0469  141.3499  166.1323 N.ar    1  UNL1       -0.2304
     21 C         143.6738  141.5651  164.7866 C.ar    1  UNL1        0.1682
     22 N         143.8121  142.9540  164.2372 N.am    1  UNL1       -0.2639
     23 H         143.4914  143.7243  164.7597 H       1  UNL1        0.1565
     24 C         137.4043  141.6229  163.5622 C.3     1  UNL1        0.0320
     25 C         138.0166  141.7834  162.2023 C.3     1  UNL1        0.0327
     26 C         138.9143  142.9507  161.9170 C.ar    1  UNL1        0.0261
     27 C         138.6088  144.2944  162.5097 C.ar    1  UNL1        0.1566
     28 F         137.4054  144.4707  163.3877 F       1  UNL1       -0.2028
     29 C         139.5066  145.4616  162.2244 C.ar    1  UNL1        0.1281
     30 N         140.7099  145.2853  161.3465 N.ar    1  UNL1       -0.2400
     31 C         141.0155  143.9417  160.7538 C.ar    1  UNL1        0.0990
     32 C         142.2189  143.7654  159.8758 C.ar    1  UNL1        0.0254
     33 C         142.5244  142.4217  159.2832 C.ar    1  UNL1        0.0593
     34 C         141.6267  141.2544  159.5684 C.ar    1  UNL1        0.2249
     35 N         140.4233  141.4308  160.4464 N.ar    1  UNL1       -0.2104
     36 C         140.1177  142.7744  161.0391 C.ar    1  UNL1        0.1002
     37 O         141.9322  139.9108  158.9758 O.3     1  UNL1       -0.4601
     38 C         141.4276  138.6650  159.6416 C.3     1  UNL1        0.2120
     39 C         142.0754  138.1732  160.9020 C.3     1  UNL1        0.1023
     40 C         141.3345  138.2469  162.2041 C.3     1  UNL1        0.1433
     41 O         140.9060  139.5771  162.7490 O.3     1  UNL1       -0.3818
     42 H         141.6899  140.1002  162.9786 H       1  UNL1        0.2104
     43 C         143.4641  137.6078  160.8602 C.3     1  UNL1        0.1433
     44 O         144.6494  138.5258  160.9085 O.3     1  UNL1       -0.3818
     45 H         144.6709  139.0687  160.1049 H       1  UNL1        0.2104
@<TRIPOS>BOND
     1    12    13    2
     2    13    14    1
     3    14    15    1
     4    15    16    1
     5    16    17   ar
     6    17    18   ar
     7    18    19   ar
     8    19    11    1
     9    11     9    1
    10     9     1    1
    11     1     2    1
    12     2     3    1
    13     3     4    1
    14     4    24    1
    15    24    25    1
    16    25    26    1
    17    26    27   ar
    18    27    28    1
    19    27    29   ar
    20    29    30   ar
    21    30    31   ar
    22    31    32   ar
    23    32    33   ar
    24    33    34   ar
    25    34    37    1
    26    37    38    1
    27    38    39    1
    28    39    40    1
    29    40    41    1
    30    39    43    1
    31    43    44    1
    32    34    35   ar
    33    35    36   ar
    34     4     5    1
    35     5     6    1
    36     4     7    1
    37     7     8    1
    38    19    20   ar
    39    20    21   ar
    40    21    22    1
    41    22    13   am
    42    21    16   ar
    43     6     1    1
    44     8     1    1
    45    36    26   ar
    46    36    31   ar
    47     9    10    1
    48    41    42    1
    49    44    45    1
    50    22    23    1
