@<TRIPOS>MOLECULE
*****
 30 32 0 0 0
SMALL
GASTEIGER

@<TRIPOS>ATOM
      1 C         139.5524  137.9238  163.3705 C.3     1  UNL1        0.0370
      2 C         138.9072  138.2284  162.0510 C.3     1  UNL1        0.0204
      3 C         139.9636  138.1487  160.9891 C.3     1  UNL1        0.0722
      4 N         141.2617  137.7950  161.6522 N.3     1  UNL1       -0.2723
      5 C         141.0077  137.6560  163.1240 C.3     1  UNL1        0.0738
      6 C         138.8634  137.8927  164.7025 C.3     1  UNL1        0.0912
      7 C         138.5050  138.9228  167.0605 C.2     1  UNL1        0.2833
      8 O         137.2538  138.1119  167.2245 O.2     1  UNL1       -0.2667
      9 N         139.3098  138.8132  165.7995 N.am    1  UNL1       -0.2982
     10 H         140.1310  139.3454  165.6919 H       1  UNL1        0.1498
     11 C         140.1034  141.6033  169.3682 C.ar    1  UNL1        0.1005
     12 C         139.9664  140.9401  168.0297 C.ar    1  UNL1        0.0629
     13 C         138.9513  139.8433  168.1575 C.ar    1  UNL1        0.2295
     14 O         138.4609  139.8285  169.5750 O.2     1  UNL1       -0.3490
     15 N         139.1730  140.9163  170.3232 N.ar    1  UNL1       -0.0812
     16 C         142.4958  142.5424  169.7485 C.3     1  UNL1        0.0064
     17 C         141.0114  142.7518  169.6943 C.3     1  UNL1        0.0436
     18 C         140.4351  144.1098  169.9663 C.3     1  UNL1        0.0064
     19 C         142.5822  137.6122  160.9644 C.3     1  UNL1        0.0768
     20 C         143.8487  138.0352  161.6478 C.3     1  UNL1        0.0437
     21 C         143.9434  139.3931  162.2781 C.ar    1  UNL1       -0.0208
     22 C         143.4232  140.5963  161.5491 C.ar    1  UNL1       -0.0043
     23 C         143.5179  141.9541  162.1795 C.ar    1  UNL1        0.0035
     24 C         144.1328  142.1086  163.5389 C.ar    1  UNL1        0.0714
     25 C         144.6530  140.9053  164.2679 C.ar    1  UNL1        0.0035
     26 C         144.5583  139.5476  163.6376 C.ar    1  UNL1       -0.0043
     27 C         144.2275  143.4665  164.1693 C.3     1  UNL1        0.4186
     28 F         144.3222  144.8242  164.7997 F       1  UNL1       -0.1659
     29 F         144.2876  144.0942  162.8083 F       1  UNL1       -0.1659
     30 F         144.1674  142.8388  165.5303 F       1  UNL1       -0.1659
@<TRIPOS>BOND
     1    16    17    1
     2    17    18    1
     3    17    11    1
     4    11    12   ar
     5    12    13   ar
     6    13     7    1
     7     7     8    2
     8     7     9   am
     9     9     6    1
    10     1     6    1
    11     1     2    1
    12     2     3    1
    13     3     4    1
    14     4    19    1
    15    19    20    1
    16    20    21    1
    17    21    22   ar
    18    22    23   ar
    19    23    24   ar
    20    24    27    1
    21    27    28    1
    22    27    29    1
    23    27    30    1
    24    24    25   ar
    25    25    26   ar
    26     4     5    1
    27    13    14   ar
    28    14    15   ar
    29    15    11   ar
    30     5     1    1
    31    26    21   ar
    32     9    10    1
@<TRIPOS>MOLECULE
*****
 30 32 0 0 0
SMALL
GASTEIGER

@<TRIPOS>ATOM
      1 C         139.1630  138.2464  163.1710 C.3     1  UNL1        0.0370
      2 C         138.0594  138.0416  162.1759 C.3     1  UNL1        0.0204
      3 C         138.4584  138.7146  160.8962 C.3     1  UNL1        0.0722
      4 N         139.8085  139.3355  161.1003 N.3     1  UNL1       -0.2723
      5 C         140.2441  139.0461  162.5062 C.3     1  UNL1        0.0738
      6 C         139.1822  137.7404  164.5830 C.3     1  UNL1        0.0912
      7 C         138.6566  138.9323  166.8309 C.2     1  UNL1        0.2833
      8 O         137.2941  138.3051  166.8449 O.2     1  UNL1       -0.2667
      9 N         139.6007  138.6499  165.7000 N.am    1  UNL1       -0.2982
     10 H         140.4949  139.0616  165.6909 H       1  UNL1        0.1498
     11 C         140.1677  141.6139  169.1954 C.ar    1  UNL1        0.1005
     12 C         140.0471  140.9792  167.8416 C.ar    1  UNL1        0.0629
     13 C         139.0751  139.8417  167.9479 C.ar    1  UNL1        0.2295
     14 O         138.5949  139.7734  169.3673 O.2     1  UNL1       -0.3490
     15 N         139.2703  140.8687  170.1384 N.ar    1  UNL1       -0.0812
     16 C         140.4064  144.1018  169.9049 C.3     1  UNL1        0.0064
     17 C         141.0337  142.7877  169.5449 C.3     1  UNL1        0.0436
     18 C         142.5272  142.6474  169.5343 C.3     1  UNL1        0.0064
     19 C         140.5866  140.1098  160.0780 C.3     1  UNL1        0.0768
     20 C         140.5188  141.6081  160.0607 C.3     1  UNL1        0.0437
     21 C         140.0119  142.3498  161.2620 C.ar    1  UNL1       -0.0208
     22 C         140.9593  142.7402  162.3573 C.ar    1  UNL1       -0.0043
     23 C         140.4523  143.4819  163.5585 C.ar    1  UNL1        0.0035
     24 C         138.9979  143.8332  163.6643 C.ar    1  UNL1        0.0714
     25 C         138.0504  143.4428  162.5689 C.ar    1  UNL1        0.0035
     26 C         138.5574  142.7011  161.3678 C.ar    1  UNL1       -0.0043
     27 C         138.4909  144.5749  164.8655 C.3     1  UNL1        0.4186
     28 F         137.9840  145.3166  166.0667 F       1  UNL1       -0.1659
     29 F         137.2407  143.7462  164.8496 F       1  UNL1       -0.1659
     30 F         139.7410  145.4036  164.8814 F       1  UNL1       -0.1659
@<TRIPOS>BOND
     1    16    17    1
     2    17    18    1
     3    17    11    1
     4    11    12   ar
     5    12    13   ar
     6    13     7    1
     7     7     8    2
     8     7     9   am
     9     9     6    1
    10     1     6    1
    11     1     2    1
    12     2     3    1
    13     3     4    1
    14     4    19    1
    15    19    20    1
    16    20    21    1
    17    21    22   ar
    18    22    23   ar
    19    23    24   ar
    20    24    27    1
    21    27    28    1
    22    27    29    1
    23    27    30    1
    24    24    25   ar
    25    25    26   ar
    26     4     5    1
    27    13    14   ar
    28    14    15   ar
    29    15    11   ar
    30     5     1    1
    31    26    21   ar
    32     9    10    1
@<TRIPOS>MOLECULE
*****
 30 32 0 0 0
SMALL
GASTEIGER

@<TRIPOS>ATOM
      1 C         139.6245  138.3161  160.9397 C.3     1  UNL1        0.0370
      2 C         139.6318  138.6155  159.4698 C.3     1  UNL1        0.0204
      3 C         141.0600  138.7499  159.0313 C.3     1  UNL1        0.0722
      4 N         141.9353  138.5337  160.2301 N.3     1  UNL1       -0.2723
      5 C         141.0482  138.2656  161.4096 C.3     1  UNL1        0.0738
      6 C         138.4073  138.1045  161.7903 C.3     1  UNL1        0.0912
      7 C         138.2842  139.3436  164.0706 C.2     1  UNL1        0.2833
      8 O         137.9151  140.6126  163.3610 O.2     1  UNL1       -0.2667
      9 N         138.5303  138.0896  163.2852 N.am    1  UNL1       -0.2982
     10 H         138.7725  137.2567  163.7509 H       1  UNL1        0.1498
     11 C         139.2008  139.7475  167.8205 C.ar    1  UNL1        0.1005
     12 C         139.4573  140.0348  166.3707 C.ar    1  UNL1        0.0629
     13 C         138.4072  139.3287  165.5654 C.ar    1  UNL1        0.2295
     14 O         137.5016  138.6051  166.5173 O.2     1  UNL1       -0.3490
     15 N         137.9921  138.8639  167.9111 N.ar    1  UNL1       -0.0812
     16 C         139.3851  141.1711  169.9860 C.3     1  UNL1        0.0064
     17 C         140.0108  140.2548  168.9766 C.3     1  UNL1        0.0436
     18 C         141.4465  139.8458  169.1233 C.3     1  UNL1        0.0064
     19 C         143.4346  138.5778  160.2465 C.3     1  UNL1        0.0768
     20 C         144.1642  138.8001  161.5381 C.3     1  UNL1        0.0437
     21 C         144.1443  140.1520  162.1878 C.ar    1  UNL1       -0.0208
     22 C         143.7507  140.2858  163.6290 C.ar    1  UNL1       -0.0043
     23 C         143.7308  141.6377  164.2786 C.ar    1  UNL1        0.0035
     24 C         144.1043  142.8558  163.4870 C.ar    1  UNL1        0.0714
     25 C         144.4979  142.7220  162.0458 C.ar    1  UNL1        0.0035
     26 C         144.5178  141.3701  161.3962 C.ar    1  UNL1       -0.0043
     27 C         144.0844  144.2077  164.1367 C.3     1  UNL1        0.4186
     28 F         144.0644  145.5595  164.7864 F       1  UNL1       -0.1659
     29 F         143.3121  144.7554  162.9733 F       1  UNL1       -0.1659
     30 F         144.8566  143.6599  165.3001 F       1  UNL1       -0.1659
@<TRIPOS>BOND
     1    16    17    1
     2    17    18    1
     3    17    11    1
     4    11    12   ar
     5    12    13   ar
     6    13     7    1
     7     7     8    2
     8     7     9   am
     9     9     6    1
    10     1     6    1
    11     1     2    1
    12     2     3    1
    13     3     4    1
    14     4    19    1
    15    19    20    1
    16    20    21    1
    17    21    22   ar
    18    22    23   ar
    19    23    24   ar
    20    24    27    1
    21    27    28    1
    22    27    29    1
    23    27    30    1
    24    24    25   ar
    25    25    26   ar
    26     4     5    1
    27    13    14   ar
    28    14    15   ar
    29    15    11   ar
    30     5     1    1
    31    26    21   ar
    32     9    10    1
@<TRIPOS>MOLECULE
*****
 30 32 0 0 0
SMALL
GASTEIGER

@<TRIPOS>ATOM
      1 C         143.0679  139.0802  161.7635 C.3     1  UNL1        0.0370
      2 C         143.2176  138.3355  160.4700 C.3     1  UNL1        0.0204
      3 C         141.8756  138.2938  159.8012 C.3     1  UNL1        0.0722
      4 N         140.8965  139.0126  160.6813 N.3     1  UNL1       -0.2723
      5 C         141.6333  139.4986  161.8941 C.3     1  UNL1        0.0738
      6 C         144.1609  139.3576  162.7527 C.3     1  UNL1        0.0912
      7 C         143.3404  140.3855  164.9933 C.2     1  UNL1        0.2833
      8 O         143.0541  141.6812  164.2940 O.2     1  UNL1       -0.2667
      9 N         143.8938  139.2237  164.2227 N.am    1  UNL1       -0.2982
     10 H         144.0817  138.3732  164.6816 H       1  UNL1        0.1498
     11 C         142.5337  140.7830  168.7691 C.ar    1  UNL1        0.1005
     12 C         142.7082  141.3663  167.3981 C.ar    1  UNL1        0.0629
     13 C         143.0733  140.2516  166.4632 C.ar    1  UNL1        0.2295
     14 O         143.1244  138.9794  167.2563 O.2     1  UNL1       -0.3490
     15 N         142.7909  139.3079  168.6814 N.ar    1  UNL1       -0.0812
     16 C         141.2242  140.9365  171.0078 C.3     1  UNL1        0.0064
     17 C         142.1664  141.5417  170.0098 C.3     1  UNL1        0.0436
     18 C         142.7415  142.9057  170.2527 C.3     1  UNL1        0.0064
     19 C         139.4368  139.2106  160.3984 C.3     1  UNL1        0.0768
     20 C         138.4079  138.5633  161.2772 C.3     1  UNL1        0.0437
     21 C         138.4480  138.7767  162.7615 C.ar    1  UNL1       -0.0208
     22 C         138.1009  140.1182  163.3359 C.ar    1  UNL1       -0.0043
     23 C         138.1410  140.3316  164.8201 C.ar    1  UNL1        0.0035
     24 C         138.5281  139.2036  165.7298 C.ar    1  UNL1        0.0714
     25 C         138.8751  137.8621  165.1554 C.ar    1  UNL1        0.0035
     26 C         138.8350  137.6487  163.6712 C.ar    1  UNL1       -0.0043
     27 C         138.5681  139.4170  167.2141 C.3     1  UNL1        0.4186
     28 F         138.6082  139.6305  168.6982 F       1  UNL1       -0.1659
     29 F         137.5346  138.3453  167.3961 F       1  UNL1       -0.1659
     30 F         139.6016  140.4887  167.0320 F       1  UNL1       -0.1659
@<TRIPOS>BOND
     1    16    17    1
     2    17    18    1
     3    17    11    1
     4    11    12   ar
     5    12    13   ar
     6    13     7    1
     7     7     8    2
     8     7     9   am
     9     9     6    1
    10     1     6    1
    11     1     2    1
    12     2     3    1
    13     3     4    1
    14     4    19    1
    15    19    20    1
    16    20    21    1
    17    21    22   ar
    18    22    23   ar
    19    23    24   ar
    20    24    27    1
    21    27    28    1
    22    27    29    1
    23    27    30    1
    24    24    25   ar
    25    25    26   ar
    26     4     5    1
    27    13    14   ar
    28    14    15   ar
    29    15    11   ar
    30     5     1    1
    31    26    21   ar
    32     9    10    1
@<TRIPOS>MOLECULE
*****
 30 32 0 0 0
SMALL
GASTEIGER

@<TRIPOS>ATOM
      1 C         143.0543  143.7476  163.3268 C.3     1  UNL1        0.0370
      2 C         143.9363  144.0294  164.5070 C.3     1  UNL1        0.0204
      3 C         144.7582  142.8035  164.7746 C.3     1  UNL1        0.0722
      4 N         144.3842  141.7641  163.7599 N.3     1  UNL1       -0.2723
      5 C         143.3312  142.3475  162.8650 C.3     1  UNL1        0.0738
      6 C         142.0686  144.6989  162.7156 C.3     1  UNL1        0.0912
      7 C         140.9434  145.1316  160.4142 C.2     1  UNL1        0.2833
      8 O         139.6008  144.8387  161.0155 O.2     1  UNL1       -0.2667
      9 N         142.1773  145.0617  161.2642 N.am    1  UNL1       -0.2982
     10 H         143.0585  145.2540  160.8695 H       1  UNL1        0.1498
     11 C         140.4773  146.1569  156.6998 C.ar    1  UNL1        0.1005
     12 C         139.9152  145.8761  158.0619 C.ar    1  UNL1        0.0629
     13 C         141.0521  145.4944  158.9629 C.ar    1  UNL1        0.2295
     14 O         142.3168  145.5393  158.1576 O.2     1  UNL1       -0.3490
     15 N         141.9615  145.9487  156.7589 N.ar    1  UNL1       -0.0812
     16 C         140.1236  147.7666  154.6914 C.3     1  UNL1        0.0064
     17 C         139.6928  146.5728  155.4908 C.3     1  UNL1        0.0436
     18 C         138.4774  145.7947  155.0813 C.3     1  UNL1        0.0064
     19 C         144.9618  140.3835  163.6578 C.3     1  UNL1        0.0768
     20 C         144.5372  139.3194  164.6259 C.3     1  UNL1        0.0437
     21 C         143.1010  139.2184  165.0471 C.ar    1  UNL1       -0.0208
     22 C         142.1485  138.3630  164.2655 C.ar    1  UNL1       -0.0043
     23 C         140.7125  138.2622  164.6867 C.ar    1  UNL1        0.0035
     24 C         140.2289  139.0167  165.8896 C.ar    1  UNL1        0.0714
     25 C         141.1814  139.8721  166.6712 C.ar    1  UNL1        0.0035
     26 C         142.6174  139.9730  166.2499 C.ar    1  UNL1       -0.0043
     27 C         138.7927  138.9158  166.3108 C.3     1  UNL1        0.4186
     28 F         137.3566  138.8149  166.7319 F       1  UNL1       -0.1659
     29 F         139.1086  139.6694  167.5686 F       1  UNL1       -0.1659
     30 F         138.4768  138.1622  165.0529 F       1  UNL1       -0.1659
@<TRIPOS>BOND
     1    16    17    1
     2    17    18    1
     3    17    11    1
     4    11    12   ar
     5    12    13   ar
     6    13     7    1
     7     7     8    2
     8     7     9   am
     9     9     6    1
    10     1     6    1
    11     1     2    1
    12     2     3    1
    13     3     4    1
    14     4    19    1
    15    19    20    1
    16    20    21    1
    17    21    22   ar
    18    22    23   ar
    19    23    24   ar
    20    24    27    1
    21    27    28    1
    22    27    29    1
    23    27    30    1
    24    24    25   ar
    25    25    26   ar
    26     4     5    1
    27    13    14   ar
    28    14    15   ar
    29    15    11   ar
    30     5     1    1
    31    26    21   ar
    32     9    10    1
@<TRIPOS>MOLECULE
*****
 30 32 0 0 0
SMALL
GASTEIGER

@<TRIPOS>ATOM
      1 C         140.1262  137.8577  162.9936 C.3     1  UNL1        0.0370
      2 C         139.9795  138.0033  161.5078 C.3     1  UNL1        0.0204
      3 C         141.3076  138.4213  160.9497 C.3     1  UNL1        0.0722
      4 N         142.2750  138.5340  162.0904 N.3     1  UNL1       -0.2723
      5 C         141.5450  138.1858  163.3536 C.3     1  UNL1        0.0738
      6 C         139.0441  137.4549  163.9511 C.3     1  UNL1        0.0912
      7 C         138.7370  139.2205  165.8321 C.2     1  UNL1        0.2833
      8 O         138.2392  140.2107  164.8213 O.2     1  UNL1       -0.2667
      9 N         139.1395  137.8426  165.3969 N.am    1  UNL1       -0.2982
     10 H         139.4663  137.1927  166.0603 H       1  UNL1        0.1498
     11 C         139.5583  140.6542  169.3442 C.ar    1  UNL1        0.1005
     12 C         139.8255  140.5632  167.8709 C.ar    1  UNL1        0.0629
     13 C         138.8324  139.6082  167.2779 C.ar    1  UNL1        0.2295
     14 O         137.9515  139.1091  168.3845 O.2     1  UNL1       -0.3490
     15 N         138.4001  139.7555  169.6617 N.ar    1  UNL1       -0.0812
     16 C         141.4361  140.8945  171.1236 C.3     1  UNL1        0.0064
     17 C         140.3163  141.4962  170.3274 C.3     1  UNL1        0.0436
     18 C         139.9543  142.9399  170.5144 C.3     1  UNL1        0.0064
     19 C         143.7192  138.9262  161.9863 C.3     1  UNL1        0.0768
     20 C         144.1941  140.2094  162.6011 C.3     1  UNL1        0.0437
     21 C         143.2005  141.1966  163.1381 C.ar    1  UNL1       -0.0208
     22 C         142.8839  141.2201  164.6041 C.ar    1  UNL1       -0.0043
     23 C         141.8903  142.2072  165.1410 C.ar    1  UNL1        0.0035
     24 C         141.2134  143.1709  164.2120 C.ar    1  UNL1        0.0714
     25 C         141.5300  143.1474  162.7460 C.ar    1  UNL1        0.0035
     26 C         142.5236  142.1602  162.2090 C.ar    1  UNL1       -0.0043
     27 C         140.2198  144.1581  164.7490 C.3     1  UNL1        0.4186
     28 F         139.2263  145.1453  165.2859 F       1  UNL1       -0.1659
     29 F         139.5333  143.0575  165.5022 F       1  UNL1       -0.1659
     30 F         140.9063  145.2587  163.9958 F       1  UNL1       -0.1659
@<TRIPOS>BOND
     1    16    17    1
     2    17    18    1
     3    17    11    1
     4    11    12   ar
     5    12    13   ar
     6    13     7    1
     7     7     8    2
     8     7     9   am
     9     9     6    1
    10     1     6    1
    11     1     2    1
    12     2     3    1
    13     3     4    1
    14     4    19    1
    15    19    20    1
    16    20    21    1
    17    21    22   ar
    18    22    23   ar
    19    23    24   ar
    20    24    27    1
    21    27    28    1
    22    27    29    1
    23    27    30    1
    24    24    25   ar
    25    25    26   ar
    26     4     5    1
    27    13    14   ar
    28    14    15   ar
    29    15    11   ar
    30     5     1    1
    31    26    21   ar
    32     9    10    1
@<TRIPOS>MOLECULE
*****
 30 32 0 0 0
SMALL
GASTEIGER

@<TRIPOS>ATOM
      1 C         138.5481  139.1445  163.2564 C.3     1  UNL1        0.0370
      2 C         138.9621  137.7655  163.6771 C.3     1  UNL1        0.0204
      3 C         139.2555  137.7980  165.1478 C.3     1  UNL1        0.0722
      4 N         139.0228  139.1971  165.6360 N.3     1  UNL1       -0.2723
      5 C         138.5856  140.0293  164.4672 C.3     1  UNL1        0.0738
      6 C         138.1639  139.5649  161.8687 C.3     1  UNL1        0.0912
      7 C         138.3420  142.1345  161.5290 C.2     1  UNL1        0.2833
      8 O         137.1862  142.3380  162.4631 O.2     1  UNL1       -0.2667
      9 N         138.8309  140.7479  161.2318 N.am    1  UNL1       -0.2982
     10 H         139.5895  140.6143  160.6187 H       1  UNL1        0.1498
     11 C         140.2174  144.7162  159.3193 C.ar    1  UNL1        0.1005
     12 C         139.6957  143.3302  159.5587 C.ar    1  UNL1        0.0629
     13 C         139.0089  143.3174  160.8921 C.ar    1  UNL1        0.2295
     14 O         139.1060  144.6954  161.4767 O.2     1  UNL1       -0.3490
     15 N         139.8529  145.5598  160.5046 N.ar    1  UNL1       -0.0812
     16 C         140.3528  146.1762  157.1745 C.3     1  UNL1        0.0064
     17 C         140.9712  145.1773  158.1072 C.3     1  UNL1        0.0436
     18 C         142.3434  144.6396  157.8278 C.3     1  UNL1        0.0064
     19 C         139.1968  139.6794  167.0457 C.3     1  UNL1        0.0768
     20 C         140.5732  139.8274  167.6233 C.3     1  UNL1        0.0437
     21 C         141.7189  140.2229  166.7395 C.ar    1  UNL1       -0.0208
     22 C         142.5726  139.1676  166.1011 C.ar    1  UNL1       -0.0043
     23 C         143.7182  139.5630  165.2173 C.ar    1  UNL1        0.0035
     24 C         144.0102  141.0137  164.9720 C.ar    1  UNL1        0.0714
     25 C         143.1565  142.0690  165.6104 C.ar    1  UNL1        0.0035
     26 C         142.0109  141.6736  166.4942 C.ar    1  UNL1       -0.0043
     27 C         145.1559  141.4092  164.0882 C.3     1  UNL1        0.4186
     28 F         146.3016  141.8045  163.2045 F       1  UNL1       -0.1659
     29 F         145.1231  142.7935  164.6649 F       1  UNL1       -0.1659
     30 F         145.1888  140.0249  163.5115 F       1  UNL1       -0.1659
@<TRIPOS>BOND
     1    16    17    1
     2    17    18    1
     3    17    11    1
     4    11    12   ar
     5    12    13   ar
     6    13     7    1
     7     7     8    2
     8     7     9   am
     9     9     6    1
    10     1     6    1
    11     1     2    1
    12     2     3    1
    13     3     4    1
    14     4    19    1
    15    19    20    1
    16    20    21    1
    17    21    22   ar
    18    22    23   ar
    19    23    24   ar
    20    24    27    1
    21    27    28    1
    22    27    29    1
    23    27    30    1
    24    24    25   ar
    25    25    26   ar
    26     4     5    1
    27    13    14   ar
    28    14    15   ar
    29    15    11   ar
    30     5     1    1
    31    26    21   ar
    32     9    10    1
@<TRIPOS>MOLECULE
*****
 30 32 0 0 0
SMALL
GASTEIGER

@<TRIPOS>ATOM
      1 C         142.6181  143.0781  161.9962 C.3     1  UNL1        0.0370
      2 C         142.1818  143.3186  160.5813 C.3     1  UNL1        0.0204
      3 C         140.9281  144.1414  160.6164 C.3     1  UNL1        0.0722
      4 N         140.5895  144.4094  162.0528 N.3     1  UNL1       -0.2723
      5 C         141.6340  143.7523  162.9057 C.3     1  UNL1        0.0738
      6 C         143.8264  142.3001  162.4262 C.3     1  UNL1        0.0912
      7 C         143.0042  140.4565  164.0617 C.2     1  UNL1        0.2833
      8 O         142.1137  139.9023  162.9894 O.2     1  UNL1       -0.2667
      9 N         143.8605  141.6554  163.7801 N.am    1  UNL1       -0.2982
     10 H         144.4450  142.0191  164.4839 H       1  UNL1        0.1498
     11 C         142.5928  139.3207  167.7503 C.ar    1  UNL1        0.1005
     12 C         142.2523  140.2437  166.6179 C.ar    1  UNL1        0.0629
     13 C         143.0384  139.8118  165.4156 C.ar    1  UNL1        0.2295
     14 O         143.8646  138.6219  165.8049 O.2     1  UNL1       -0.3490
     15 N         143.5892  138.3184  167.2479 N.ar    1  UNL1       -0.0812
     16 C         142.7156  138.6555  170.2588 C.3     1  UNL1        0.0064
     17 C         142.0347  139.3882  169.1410 C.3     1  UNL1        0.0436
     18 C         140.7957  140.1885  169.4139 C.3     1  UNL1        0.0064
     19 C         139.4130  145.1964  162.5494 C.3     1  UNL1        0.0768
     20 C         138.1862  144.4843  163.0371 C.3     1  UNL1        0.0437
     21 C         138.2795  143.0602  163.4992 C.ar    1  UNL1       -0.0208
     22 C         138.8218  142.7481  164.8624 C.ar    1  UNL1       -0.0043
     23 C         138.9151  141.3241  165.3244 C.ar    1  UNL1        0.0035
     24 C         138.4661  140.2122  164.4232 C.ar    1  UNL1        0.0714
     25 C         137.9238  140.5244  163.0600 C.ar    1  UNL1        0.0035
     26 C         137.8306  141.9484  162.5980 C.ar    1  UNL1       -0.0043
     27 C         138.5594  138.7882  164.8853 C.3     1  UNL1        0.4186
     28 F         138.6526  137.3642  165.3474 F       1  UNL1       -0.1659
     29 F         139.2512  138.4186  163.6068 F       1  UNL1       -0.1659
     30 F         137.8676  139.1578  166.1639 F       1  UNL1       -0.1659
@<TRIPOS>BOND
     1    16    17    1
     2    17    18    1
     3    17    11    1
     4    11    12   ar
     5    12    13   ar
     6    13     7    1
     7     7     8    2
     8     7     9   am
     9     9     6    1
    10     1     6    1
    11     1     2    1
    12     2     3    1
    13     3     4    1
    14     4    19    1
    15    19    20    1
    16    20    21    1
    17    21    22   ar
    18    22    23   ar
    19    23    24   ar
    20    24    27    1
    21    27    28    1
    22    27    29    1
    23    27    30    1
    24    24    25   ar
    25    25    26   ar
    26     4     5    1
    27    13    14   ar
    28    14    15   ar
    29    15    11   ar
    30     5     1    1
    31    26    21   ar
    32     9    10    1
@<TRIPOS>MOLECULE
*****
 30 32 0 0 0
SMALL
GASTEIGER

@<TRIPOS>ATOM
      1 C         143.1222  141.2978  161.6559 C.3     1  UNL1        0.0370
      2 C         143.8449  140.2552  160.8553 C.3     1  UNL1        0.0204
      3 C         142.8184  139.4081  160.1634 C.3     1  UNL1        0.0722
      4 N         141.4614  139.9271  160.5363 N.3     1  UNL1       -0.2723
      5 C         141.6490  141.0950  161.4587 C.3     1  UNL1        0.0738
      6 C         143.7605  142.3572  162.5045 C.3     1  UNL1        0.0912
      7 C         143.6006  141.5138  164.9567 C.2     1  UNL1        0.2833
      8 O         144.3466  140.2690  164.5772 O.2     1  UNL1       -0.2667
      9 N         143.3075  142.5578  163.9204 N.am    1  UNL1       -0.2982
     10 H         142.8179  143.3748  164.1694 H       1  UNL1        0.1498
     11 C         141.9711  141.4512  168.4789 C.ar    1  UNL1        0.1005
     12 C         142.1054  140.9068  167.0876 C.ar    1  UNL1        0.0629
     13 C         143.1477  141.7144  166.3725 C.ar    1  UNL1        0.2295
     14 O         143.6574  142.7580  167.3217 O.2     1  UNL1       -0.3490
     15 N         142.9302  142.5953  168.6236 N.ar    1  UNL1       -0.0812
     16 C         139.8639  141.7677  169.9654 C.3     1  UNL1        0.0064
     17 C         141.0408  140.9411  169.5393 C.3     1  UNL1        0.0436
     18 C         141.2875  139.6042  170.1735 C.3     1  UNL1        0.0064
     19 C         140.1472  139.3750  160.0689 C.3     1  UNL1        0.0768
     20 C         139.4582  138.3051  160.8628 C.3     1  UNL1        0.0437
     21 C         139.1977  138.5073  162.3262 C.ar    1  UNL1       -0.0208
     22 C         139.7020  137.5063  163.3231 C.ar    1  UNL1       -0.0043
     23 C         139.4414  137.7085  164.7863 C.ar    1  UNL1        0.0035
     24 C         138.6766  138.9116  165.2527 C.ar    1  UNL1        0.0714
     25 C         138.1723  139.9125  164.2559 C.ar    1  UNL1        0.0035
     26 C         138.4328  139.7104  162.7926 C.ar    1  UNL1       -0.0043
     27 C         138.4161  139.1138  166.7161 C.3     1  UNL1        0.4186
     28 F         138.1555  139.3159  168.1794 F       1  UNL1       -0.1659
     29 F         139.0082  140.4894  166.6315 F       1  UNL1       -0.1659
     30 F         137.8240  137.7382  166.8007 F       1  UNL1       -0.1659
@<TRIPOS>BOND
     1    16    17    1
     2    17    18    1
     3    17    11    1
     4    11    12   ar
     5    12    13   ar
     6    13     7    1
     7     7     8    2
     8     7     9   am
     9     9     6    1
    10     1     6    1
    11     1     2    1
    12     2     3    1
    13     3     4    1
    14     4    19    1
    15    19    20    1
    16    20    21    1
    17    21    22   ar
    18    22    23   ar
    19    23    24   ar
    20    24    27    1
    21    27    28    1
    22    27    29    1
    23    27    30    1
    24    24    25   ar
    25    25    26   ar
    26     4     5    1
    27    13    14   ar
    28    14    15   ar
    29    15    11   ar
    30     5     1    1
    31    26    21   ar
    32     9    10    1
