@<TRIPOS>MOLECULE
*****
 31 35 0 0 0
SMALL
GASTEIGER

@<TRIPOS>ATOM
      1 C         137.7778  139.5984  161.3541 C.3     1  UNL1        0.0731
      2 N         138.1072  140.7770  162.2215 N.3     1  UNL1       -0.2712
      3 C         137.1178  141.6580  162.9249 C.3     1  UNL1        0.0738
      4 C         137.8830  142.7070  163.6758 C.3     1  UNL1        0.0372
      5 C         137.7445  143.8999  164.5747 C.3     1  UNL1        0.0245
      6 C         139.1213  144.4045  164.8909 C.3     1  UNL1        0.0909
      7 N         140.1107  143.5234  164.1874 N.pl3   1  UNL1       -0.3076
      8 C         139.3455  142.4744  163.4365 C.3     1  UNL1        0.0901
      9 C         139.4840  141.2815  162.5377 C.3     1  UNL1        0.0921
     10 C         141.6034  143.6663  164.2278 C.ar    1  UNL1        0.0501
     11 C         142.2360  145.0023  163.9732 C.ar    1  UNL1        0.0147
     12 C         143.7287  145.1452  164.0136 C.ar    1  UNL1        0.0036
     13 C         144.5886  143.9522  164.3087 C.ar    1  UNL1        0.0297
     14 C         143.9559  142.6161  164.5633 C.ar    1  UNL1        0.1414
     15 F         144.8159  141.4231  164.8584 F       1  UNL1       -0.2041
     16 C         142.4633  142.4732  164.5229 C.ar    1  UNL1        0.0441
     17 C         138.5371  138.3146  161.5132 C.3     1  UNL1        0.0294
     18 C         138.6041  137.6439  162.8532 C.3     1  UNL1        0.0666
     19 S         139.8612  137.7200  163.6680 S.3     1  UNL1       -0.0756
     20 C         142.5329  138.4828  165.3798 C.3     1  UNL1        0.1340
     21 N         141.1322  138.9209  165.6898 N.ar    1  UNL1       -0.2872
     22 C         139.9042  138.5703  164.9030 C.ar    1  UNL1        0.1933
     23 N         138.7266  139.2192  165.5679 N.ar    1  UNL1       -0.1221
     24 N         139.2268  139.9709  166.7657 N.ar    1  UNL1       -0.1266
     25 C         140.7135  139.7866  166.8411 C.ar    1  UNL1        0.1862
     26 C         141.6221  140.3661  167.8845 C.ar    1  UNL1        0.1362
     27 C         142.1992  139.4829  168.9507 C.ar    1  UNL1        0.1211
     28 N         143.1078  140.0625  169.9941 N.ar    1  UNL1       -0.2390
     29 C         143.4391  141.5253  169.9712 C.ar    1  UNL1        0.1195
     30 C         142.8619  142.4085  168.9050 C.ar    1  UNL1        0.1196
     31 N         141.9534  141.8289  167.8616 N.ar    1  UNL1       -0.2375
@<TRIPOS>BOND
     1    20    21    1
     2    21    22   ar
     3    22    19    1
     4    19    18    1
     5    18    17    1
     6    17     1    1
     7     1     2    1
     8     2     3    1
     9     3     4    1
    10     4     5    1
    11     5     6    1
    12     6     7    1
    13     7    10    1
    14    10    11   ar
    15    11    12   ar
    16    12    13   ar
    17    13    14   ar
    18    14    15    1
    19    14    16   ar
    20     7     8    1
    21     8     9    1
    22    22    23   ar
    23    23    24   ar
    24    24    25   ar
    25    25    26    1
    26    26    27   ar
    27    27    28   ar
    28    28    29   ar
    29    29    30   ar
    30    30    31   ar
    31    25    21   ar
    32    31    26   ar
    33     9     2    1
    34     8     4    1
    35    16    10   ar
@<TRIPOS>MOLECULE
*****
 31 35 0 0 0
SMALL
GASTEIGER

@<TRIPOS>ATOM
      1 C         137.9498  139.0181  162.2634 C.3     1  UNL1        0.0731
      2 N         138.2128  140.4034  162.7750 N.3     1  UNL1       -0.2712
      3 C         137.1811  141.4659  163.0134 C.3     1  UNL1        0.0738
      4 C         137.8843  142.6886  163.5238 C.3     1  UNL1        0.0372
      5 C         137.6813  144.1009  163.9866 C.3     1  UNL1        0.0245
      6 C         139.0222  144.6670  164.3496 C.3     1  UNL1        0.0909
      7 N         140.0539  143.6045  164.1111 N.pl3   1  UNL1       -0.3076
      8 C         139.3506  142.3818  163.6008 C.3     1  UNL1        0.0901
      9 C         139.5536  140.9695  163.1380 C.3     1  UNL1        0.0921
     10 C         141.5296  143.7408  164.3425 C.ar    1  UNL1        0.0501
     11 C         142.2264  142.8222  165.3019 C.ar    1  UNL1        0.0147
     12 C         143.7022  142.9585  165.5332 C.ar    1  UNL1        0.0036
     13 C         144.4812  144.0134  164.8051 C.ar    1  UNL1        0.0297
     14 C         143.7844  144.9321  163.8456 C.ar    1  UNL1        0.1414
     15 F         144.5634  145.9870  163.1175 F       1  UNL1       -0.2041
     16 C         142.3086  144.7958  163.6143 C.ar    1  UNL1        0.0441
     17 C         139.0812  138.1855  161.7373 C.3     1  UNL1        0.0294
     18 C         140.1836  137.7511  162.6571 C.3     1  UNL1        0.0666
     19 S         139.8847  137.4476  164.0952 S.3     1  UNL1       -0.0756
     20 C         138.2294  139.2858  166.2238 C.3     1  UNL1        0.1340
     21 N         139.7208  139.1390  166.1585 N.ar    1  UNL1       -0.2872
     22 C         140.4816  138.2941  165.1802 C.ar    1  UNL1        0.1933
     23 N         141.9443  138.4442  165.4771 N.ar    1  UNL1       -0.1221
     24 N         142.0874  139.3820  166.6391 N.ar    1  UNL1       -0.1266
     25 C         140.7132  139.8114  167.0603 C.ar    1  UNL1        0.1862
     26 C         140.3886  140.7486  168.1855 C.ar    1  UNL1        0.1362
     27 C         139.7293  140.2284  169.4284 C.ar    1  UNL1        0.1211
     28 N         139.4046  141.1657  170.5536 N.ar    1  UNL1       -0.2390
     29 C         139.7392  142.6232  170.4359 C.ar    1  UNL1        0.1195
     30 C         140.3985  143.1434  169.1931 C.ar    1  UNL1        0.1196
     31 N         140.7232  142.2061  168.0678 N.ar    1  UNL1       -0.2375
@<TRIPOS>BOND
     1    20    21    1
     2    21    22   ar
     3    22    19    1
     4    19    18    1
     5    18    17    1
     6    17     1    1
     7     1     2    1
     8     2     3    1
     9     3     4    1
    10     4     5    1
    11     5     6    1
    12     6     7    1
    13     7    10    1
    14    10    11   ar
    15    11    12   ar
    16    12    13   ar
    17    13    14   ar
    18    14    15    1
    19    14    16   ar
    20     7     8    1
    21     8     9    1
    22    22    23   ar
    23    23    24   ar
    24    24    25   ar
    25    25    26    1
    26    26    27   ar
    27    27    28   ar
    28    28    29   ar
    29    29    30   ar
    30    30    31   ar
    31    25    21   ar
    32    31    26   ar
    33     9     2    1
    34     8     4    1
    35    16    10   ar
@<TRIPOS>MOLECULE
*****
 31 35 0 0 0
SMALL
GASTEIGER

@<TRIPOS>ATOM
      1 C         138.5645  144.7279  162.9520 C.3     1  UNL1        0.0731
      2 N         138.7294  143.5667  163.8871 N.3     1  UNL1       -0.2712
      3 C         138.1632  142.1913  163.6933 C.3     1  UNL1        0.0738
      4 C         138.5733  141.3517  164.8666 C.3     1  UNL1        0.0372
      5 C         138.4768  139.9827  165.4720 C.3     1  UNL1        0.0245
      6 C         139.2369  139.9930  166.7652 C.3     1  UNL1        0.0909
      7 N         139.8031  141.3686  166.9590 N.pl3   1  UNL1       -0.3076
      8 C         139.3930  142.2082  165.7856 C.3     1  UNL1        0.0901
      9 C         139.4894  143.5772  165.1802 C.3     1  UNL1        0.0921
     10 C         140.6336  141.8244  168.1220 C.ar    1  UNL1        0.0501
     11 C         140.3632  143.1540  168.7614 C.ar    1  UNL1        0.0147
     12 C         141.1937  143.6098  169.9243 C.ar    1  UNL1        0.0036
     13 C         142.2946  142.7359  170.4480 C.ar    1  UNL1        0.0297
     14 C         142.5651  141.4062  169.8086 C.ar    1  UNL1        0.1414
     15 F         143.6661  140.5323  170.3322 F       1  UNL1       -0.2041
     16 C         141.7346  140.9504  168.6456 C.ar    1  UNL1        0.0441
     17 C         139.7721  145.4528  162.4361 C.3     1  UNL1        0.0294
     18 C         140.1334  145.3687  160.9826 C.3     1  UNL1        0.0666
     19 S         141.4289  144.7372  160.5671 S.3     1  UNL1       -0.0756
     20 C         141.1690  141.6828  161.6863 C.3     1  UNL1        0.1340
     21 N         142.1947  142.6923  162.1089 N.ar    1  UNL1       -0.2872
     22 C         142.3142  144.0963  161.5945 C.ar    1  UNL1        0.1933
     23 N         143.4744  144.7469  162.2878 N.ar    1  UNL1       -0.1221
     24 N         144.0720  143.7450  163.2307 N.ar    1  UNL1       -0.1266
     25 C         143.2812  142.4752  163.1202 C.ar    1  UNL1        0.1862
     26 C         143.5326  141.2103  163.8864 C.ar    1  UNL1        0.1362
     27 C         144.8585  140.5177  163.7762 C.ar    1  UNL1        0.1211
     28 N         145.1099  139.2529  164.5424 N.ar    1  UNL1       -0.2390
     29 C         144.0352  138.6807  165.4187 C.ar    1  UNL1        0.1195
     30 C         142.7093  139.3734  165.5289 C.ar    1  UNL1        0.1196
     31 N         142.4580  140.6382  164.7626 N.ar    1  UNL1       -0.2375
@<TRIPOS>BOND
     1    20    21    1
     2    21    22   ar
     3    22    19    1
     4    19    18    1
     5    18    17    1
     6    17     1    1
     7     1     2    1
     8     2     3    1
     9     3     4    1
    10     4     5    1
    11     5     6    1
    12     6     7    1
    13     7    10    1
    14    10    11   ar
    15    11    12   ar
    16    12    13   ar
    17    13    14   ar
    18    14    15    1
    19    14    16   ar
    20     7     8    1
    21     8     9    1
    22    22    23   ar
    23    23    24   ar
    24    24    25   ar
    25    25    26    1
    26    26    27   ar
    27    27    28   ar
    28    28    29   ar
    29    29    30   ar
    30    30    31   ar
    31    25    21   ar
    32    31    26   ar
    33     9     2    1
    34     8     4    1
    35    16    10   ar
@<TRIPOS>MOLECULE
*****
 31 35 0 0 0
SMALL
GASTEIGER

@<TRIPOS>ATOM
      1 C         143.3807  138.1103  162.1902 C.3     1  UNL1        0.0731
      2 N         143.5282  139.4884  162.7640 N.3     1  UNL1       -0.2712
      3 C         144.7086  140.0009  163.5345 C.3     1  UNL1        0.0738
      4 C         144.4310  141.4251  163.9147 C.3     1  UNL1        0.0372
      5 C         144.9890  142.6222  164.6259 C.3     1  UNL1        0.0245
      6 C         143.9818  143.7296  164.5299 C.3     1  UNL1        0.0909
      7 N         142.8013  143.2170  163.7593 N.pl3   1  UNL1       -0.3076
      8 C         143.0789  141.7928  163.3791 C.3     1  UNL1        0.0901
      9 C         142.5209  140.5958  162.6679 C.3     1  UNL1        0.0921
     10 C         141.5610  143.9924  163.4273 C.ar    1  UNL1        0.0501
     11 C         140.4804  144.1548  164.4549 C.ar    1  UNL1        0.0147
     12 C         139.2401  144.9303  164.1228 C.ar    1  UNL1        0.0036
     13 C         139.0803  145.5434  162.7632 C.ar    1  UNL1        0.0297
     14 C         140.1609  145.3810  161.7356 C.ar    1  UNL1        0.1414
     15 F         140.0012  145.9941  160.3760 F       1  UNL1       -0.2041
     16 C         141.4012  144.6055  162.0676 C.ar    1  UNL1        0.0441
     17 C         142.0465  137.6470  161.6850 C.3     1  UNL1        0.0294
     18 C         140.9167  137.4240  162.6463 C.3     1  UNL1        0.0666
     19 S         141.1810  137.4041  164.1227 S.3     1  UNL1       -0.0756
     20 C         142.3572  139.2645  166.5320 C.3     1  UNL1        0.1340
     21 N         140.9136  139.1274  166.1484 N.ar    1  UNL1       -0.2872
     22 C         140.3729  138.2723  165.0410 C.ar    1  UNL1        0.1933
     23 N         138.8824  138.4377  165.0130 N.ar    1  UNL1       -0.1221
     24 N         138.5017  139.3951  166.1032 N.ar    1  UNL1       -0.1266
     25 C         139.7571  139.8214  166.8050 C.ar    1  UNL1        0.1862
     26 C         139.8412  140.7743  167.9603 C.ar    1  UNL1        0.1362
     27 C         139.3268  140.3654  169.3087 C.ar    1  UNL1        0.1211
     28 N         139.4109  141.3183  170.4641 N.ar    1  UNL1       -0.2390
     29 C         140.0094  142.6802  170.2710 C.ar    1  UNL1        0.1195
     30 C         140.5237  143.0891  168.9226 C.ar    1  UNL1        0.1196
     31 N         140.4396  142.1361  167.7672 N.ar    1  UNL1       -0.2375
@<TRIPOS>BOND
     1    20    21    1
     2    21    22   ar
     3    22    19    1
     4    19    18    1
     5    18    17    1
     6    17     1    1
     7     1     2    1
     8     2     3    1
     9     3     4    1
    10     4     5    1
    11     5     6    1
    12     6     7    1
    13     7    10    1
    14    10    11   ar
    15    11    12   ar
    16    12    13   ar
    17    13    14   ar
    18    14    15    1
    19    14    16   ar
    20     7     8    1
    21     8     9    1
    22    22    23   ar
    23    23    24   ar
    24    24    25   ar
    25    25    26    1
    26    26    27   ar
    27    27    28   ar
    28    28    29   ar
    29    29    30   ar
    30    30    31   ar
    31    25    21   ar
    32    31    26   ar
    33     9     2    1
    34     8     4    1
    35    16    10   ar
@<TRIPOS>MOLECULE
*****
 31 35 0 0 0
SMALL
GASTEIGER

@<TRIPOS>ATOM
      1 C         142.5776  137.8172  161.5469 C.3     1  UNL1        0.0731
      2 N         141.5643  138.2716  162.5553 N.3     1  UNL1       -0.2712
      3 C         140.7921  137.3875  163.4892 C.3     1  UNL1        0.0738
      4 C         139.8960  138.2594  164.3179 C.3     1  UNL1        0.0372
      5 C         138.8649  138.2518  165.4073 C.3     1  UNL1        0.0245
      6 C         138.4460  139.6700  165.6590 C.3     1  UNL1        0.0909
      7 N         139.2183  140.5541  164.7251 N.pl3   1  UNL1       -0.3076
      8 C         140.1144  139.6822  163.8963 C.3     1  UNL1        0.0901
      9 C         141.1455  139.6898  162.8069 C.3     1  UNL1        0.0921
     10 C         139.1129  142.0477  164.6357 C.ar    1  UNL1        0.0501
     11 C         137.7674  142.7089  164.6839 C.ar    1  UNL1        0.0147
     12 C         137.6620  144.2025  164.5945 C.ar    1  UNL1        0.0036
     13 C         138.9022  145.0349  164.4568 C.ar    1  UNL1        0.0297
     14 C         140.2478  144.3738  164.4086 C.ar    1  UNL1        0.1414
     15 F         141.4879  145.2062  164.2710 F       1  UNL1       -0.2041
     16 C         140.3532  142.8802  164.4980 C.ar    1  UNL1        0.0441
     17 C         143.8958  138.5245  161.4371 C.3     1  UNL1        0.0294
     18 C         144.1433  139.7764  162.2255 C.3     1  UNL1        0.0666
     19 S         144.8248  139.7002  163.5595 S.3     1  UNL1       -0.0756
     20 C         144.0389  142.4209  165.1812 C.3     1  UNL1        0.1340
     21 N         143.6541  141.0230  165.5657 N.ar    1  UNL1       -0.2872
     22 C         144.0154  139.7724  164.8203 C.ar    1  UNL1        0.1933
     23 N         143.4251  138.6067  165.5570 N.ar    1  UNL1       -0.1221
     24 N         142.6990  139.1368  166.7578 N.ar    1  UNL1       -0.1266
     25 C         142.8405  140.6302  166.7632 C.ar    1  UNL1        0.1862
     26 C         142.2689  141.5663  167.7864 C.ar    1  UNL1        0.1362
     27 C         143.1433  142.1097  168.8773 C.ar    1  UNL1        0.1211
     28 N         142.5717  143.0458  169.9005 N.ar    1  UNL1       -0.2390
     29 C         141.1255  143.4385  169.8327 C.ar    1  UNL1        0.1195
     30 C         140.2511  142.8951  168.7418 C.ar    1  UNL1        0.1196
     31 N         140.8228  141.9590  167.7186 N.ar    1  UNL1       -0.2375
@<TRIPOS>BOND
     1    20    21    1
     2    21    22   ar
     3    22    19    1
     4    19    18    1
     5    18    17    1
     6    17     1    1
     7     1     2    1
     8     2     3    1
     9     3     4    1
    10     4     5    1
    11     5     6    1
    12     6     7    1
    13     7    10    1
    14    10    11   ar
    15    11    12   ar
    16    12    13   ar
    17    13    14   ar
    18    14    15    1
    19    14    16   ar
    20     7     8    1
    21     8     9    1
    22    22    23   ar
    23    23    24   ar
    24    24    25   ar
    25    25    26    1
    26    26    27   ar
    27    27    28   ar
    28    28    29   ar
    29    29    30   ar
    30    30    31   ar
    31    25    21   ar
    32    31    26   ar
    33     9     2    1
    34     8     4    1
    35    16    10   ar
@<TRIPOS>MOLECULE
*****
 31 35 0 0 0
SMALL
GASTEIGER

@<TRIPOS>ATOM
      1 C         138.5333  138.0360  162.5982 C.3     1  UNL1        0.0731
      2 N         139.6203  138.3165  163.5931 N.3     1  UNL1       -0.2712
      3 C         141.0465  137.8629  163.4920 C.3     1  UNL1        0.0738
      4 C         141.7796  138.3659  164.7001 C.3     1  UNL1        0.0372
      5 C         143.1141  138.3964  165.3843 C.3     1  UNL1        0.0245
      6 C         142.9658  139.1798  166.6549 C.3     1  UNL1        0.0909
      7 N         141.5395  139.6334  166.7560 N.pl3   1  UNL1       -0.3076
      8 C         140.8065  139.1303  165.5478 C.3     1  UNL1        0.0901
      9 C         139.4720  139.0998  164.8636 C.3     1  UNL1        0.0921
     10 C         140.9499  140.4471  167.8696 C.ar    1  UNL1        0.0501
     11 C         141.5920  141.7408  168.2744 C.ar    1  UNL1        0.0147
     12 C         141.0024  142.5545  169.3881 C.ar    1  UNL1        0.0036
     13 C         139.7708  142.0745  170.0970 C.ar    1  UNL1        0.0297
     14 C         139.1286  140.7807  169.6922 C.ar    1  UNL1        0.1414
     15 F         137.8970  140.3006  170.4010 F       1  UNL1       -0.2041
     16 C         139.7182  139.9670  168.5785 C.ar    1  UNL1        0.0441
     17 C         137.7992  139.1717  161.9493 C.3     1  UNL1        0.0294
     18 C         138.0406  139.4926  160.5040 C.3     1  UNL1        0.0666
     19 S         138.2883  140.9104  160.0817 S.3     1  UNL1       -0.0756
     20 C         141.3019  140.7402  161.3221 C.3     1  UNL1        0.1340
     21 N         140.2869  141.8051  161.6147 N.ar    1  UNL1       -0.2872
     22 C         138.9017  141.8834  161.0446 C.ar    1  UNL1        0.1933
     23 N         138.2375  143.1054  161.6063 N.ar    1  UNL1       -0.1221
     24 N         139.2123  143.7824  162.5237 N.ar    1  UNL1       -0.1266
     25 C         140.4789  142.9789  162.5289 C.ar    1  UNL1        0.1862
     26 C         141.7196  143.2937  163.3109 C.ar    1  UNL1        0.1362
     27 C         142.5009  144.5380  163.0090 C.ar    1  UNL1        0.1211
     28 N         143.7416  144.8528  163.7910 N.ar    1  UNL1       -0.2390
     29 C         144.2009  143.9232  164.8750 C.ar    1  UNL1        0.1195
     30 C         143.4196  142.6789  165.1769 C.ar    1  UNL1        0.1196
     31 N         142.1789  142.3642  164.3949 N.ar    1  UNL1       -0.2375
@<TRIPOS>BOND
     1    20    21    1
     2    21    22   ar
     3    22    19    1
     4    19    18    1
     5    18    17    1
     6    17     1    1
     7     1     2    1
     8     2     3    1
     9     3     4    1
    10     4     5    1
    11     5     6    1
    12     6     7    1
    13     7    10    1
    14    10    11   ar
    15    11    12   ar
    16    12    13   ar
    17    13    14   ar
    18    14    15    1
    19    14    16   ar
    20     7     8    1
    21     8     9    1
    22    22    23   ar
    23    23    24   ar
    24    24    25   ar
    25    25    26    1
    26    26    27   ar
    27    27    28   ar
    28    28    29   ar
    29    29    30   ar
    30    30    31   ar
    31    25    21   ar
    32    31    26   ar
    33     9     2    1
    34     8     4    1
    35    16    10   ar
@<TRIPOS>MOLECULE
*****
 31 35 0 0 0
SMALL
GASTEIGER

@<TRIPOS>ATOM
      1 C         143.7401  140.5720  159.4111 C.3     1  UNL1        0.0731
      2 N         143.5288  141.6432  160.4396 N.3     1  UNL1       -0.2712
      3 C         144.5749  142.5830  160.9616 C.3     1  UNL1        0.0738
      4 C         143.9270  143.4832  161.9714 C.3     1  UNL1        0.0372
      5 C         144.1731  144.6205  162.9180 C.3     1  UNL1        0.0245
      6 C         142.8786  144.9400  163.6053 C.3     1  UNL1        0.0909
      7 N         141.8324  144.0001  163.0833 N.pl3   1  UNL1       -0.3076
      8 C         142.4804  143.0999  162.0735 C.3     1  UNL1        0.0901
      9 C         142.2343  141.9627  161.1268 C.3     1  UNL1        0.0921
     10 C         140.3913  143.9665  163.4983 C.ar    1  UNL1        0.0501
     11 C         139.4070  143.1411  162.7240 C.ar    1  UNL1        0.0147
     12 C         137.9659  143.1075  163.1389 C.ar    1  UNL1        0.0036
     13 C         137.5092  143.8993  164.3282 C.ar    1  UNL1        0.0297
     14 C         138.4936  144.7248  165.1026 C.ar    1  UNL1        0.1414
     15 F         138.0370  145.5166  166.2919 F       1  UNL1       -0.2041
     16 C         139.9347  144.7584  164.6876 C.ar    1  UNL1        0.0441
     17 C         143.4687  139.1376  159.7555 C.3     1  UNL1        0.0294
     18 C         144.0276  138.5505  161.0177 C.3     1  UNL1        0.0666
     19 S         143.1042  138.1319  162.1231 S.3     1  UNL1       -0.0756
     20 C         141.2052  137.4961  164.6998 C.3     1  UNL1        0.1340
     21 N         142.1970  138.6161  164.5904 N.ar    1  UNL1       -0.2872
     22 C         143.0699  138.9083  163.4061 C.ar    1  UNL1        0.1933
     23 N         143.9024  140.1133  163.7299 N.ar    1  UNL1       -0.1221
     24 N         143.5441  140.5659  165.1144 N.ar    1  UNL1       -0.1266
     25 C         142.4901  139.6406  165.6463 C.ar    1  UNL1        0.1862
     26 C         141.8428  139.7249  166.9968 C.ar    1  UNL1        0.1362
     27 C         142.6563  139.4881  168.2345 C.ar    1  UNL1        0.1211
     28 N         142.0091  139.5724  169.5851 N.ar    1  UNL1       -0.2390
     29 C         140.5481  139.8935  169.6977 C.ar    1  UNL1        0.1195
     30 C         139.7345  140.1303  168.4600 C.ar    1  UNL1        0.1196
     31 N         140.3819  140.0460  167.1095 N.ar    1  UNL1       -0.2375
@<TRIPOS>BOND
     1    20    21    1
     2    21    22   ar
     3    22    19    1
     4    19    18    1
     5    18    17    1
     6    17     1    1
     7     1     2    1
     8     2     3    1
     9     3     4    1
    10     4     5    1
    11     5     6    1
    12     6     7    1
    13     7    10    1
    14    10    11   ar
    15    11    12   ar
    16    12    13   ar
    17    13    14   ar
    18    14    15    1
    19    14    16   ar
    20     7     8    1
    21     8     9    1
    22    22    23   ar
    23    23    24   ar
    24    24    25   ar
    25    25    26    1
    26    26    27   ar
    27    27    28   ar
    28    28    29   ar
    29    29    30   ar
    30    30    31   ar
    31    25    21   ar
    32    31    26   ar
    33     9     2    1
    34     8     4    1
    35    16    10   ar
@<TRIPOS>MOLECULE
*****
 31 35 0 0 0
SMALL
GASTEIGER

@<TRIPOS>ATOM
      1 C         141.5537  145.0066  160.0793 C.3     1  UNL1        0.0731
      2 N         141.0985  144.6460  161.4623 N.3     1  UNL1       -0.2712
      3 C         140.0788  145.3865  162.2760 C.3     1  UNL1        0.0738
      4 C         139.9332  144.6797  163.5910 C.3     1  UNL1        0.0372
      5 C         139.2130  144.7005  164.9067 C.3     1  UNL1        0.0245
      6 C         139.6974  143.5362  165.7189 C.3     1  UNL1        0.0909
      7 N         140.7171  142.7957  164.9051 N.pl3   1  UNL1       -0.3076
      8 C         140.8628  143.5025  163.5901 C.3     1  UNL1        0.0901
      9 C         141.5830  143.4817  162.2745 C.3     1  UNL1        0.0921
     10 C         141.4605  141.5647  165.3316 C.ar    1  UNL1        0.0501
     11 C         141.8072  140.5106  164.3223 C.ar    1  UNL1        0.0147
     12 C         142.5507  139.2795  164.7488 C.ar    1  UNL1        0.0036
     13 C         142.9474  139.1026  166.1845 C.ar    1  UNL1        0.0297
     14 C         142.6007  140.1568  167.1938 C.ar    1  UNL1        0.1414
     15 F         142.9974  139.9798  168.6295 F       1  UNL1       -0.2041
     16 C         141.8573  141.3878  166.7673 C.ar    1  UNL1        0.0441
     17 C         141.1488  144.1573  158.9112 C.3     1  UNL1        0.0294
     18 C         139.7010  143.8396  158.6808 C.3     1  UNL1        0.0666
     19 S         139.1793  142.4639  158.9731 S.3     1  UNL1       -0.0756
     20 C         139.9906  139.8289  160.7189 C.3     1  UNL1        0.1340
     21 N         139.0517  140.9167  161.1490 N.ar    1  UNL1       -0.2872
     22 C         138.6788  142.1279  160.3466 C.ar    1  UNL1        0.1933
     23 N         137.7174  142.9441  161.1588 N.ar    1  UNL1       -0.1221
     24 N         137.4962  142.2373  162.4633 N.ar    1  UNL1       -0.1266
     25 C         138.3208  140.9843  162.4573 C.ar    1  UNL1        0.1862
     26 C         138.4005  139.9759  163.5649 C.ar    1  UNL1        0.1362
     27 C         138.7661  138.5536  163.2595 C.ar    1  UNL1        0.1211
     28 N         138.8458  137.5453  164.3672 N.ar    1  UNL1       -0.2390
     29 C         138.5600  137.9594  165.7803 C.ar    1  UNL1        0.1195
     30 C         138.1944  139.3817  166.0857 C.ar    1  UNL1        0.1196
     31 N         138.1147  140.3900  164.9780 N.ar    1  UNL1       -0.2375
@<TRIPOS>BOND
     1    20    21    1
     2    21    22   ar
     3    22    19    1
     4    19    18    1
     5    18    17    1
     6    17     1    1
     7     1     2    1
     8     2     3    1
     9     3     4    1
    10     4     5    1
    11     5     6    1
    12     6     7    1
    13     7    10    1
    14    10    11   ar
    15    11    12   ar
    16    12    13   ar
    17    13    14   ar
    18    14    15    1
    19    14    16   ar
    20     7     8    1
    21     8     9    1
    22    22    23   ar
    23    23    24   ar
    24    24    25   ar
    25    25    26    1
    26    26    27   ar
    27    27    28   ar
    28    28    29   ar
    29    29    30   ar
    30    30    31   ar
    31    25    21   ar
    32    31    26   ar
    33     9     2    1
    34     8     4    1
    35    16    10   ar
@<TRIPOS>MOLECULE
*****
 31 35 0 0 0
SMALL
GASTEIGER

@<TRIPOS>ATOM
      1 C         142.4275  144.3533  162.5173 C.3     1  UNL1        0.0731
      2 N         142.4818  143.2223  163.5011 N.3     1  UNL1       -0.2712
      3 C         143.1933  141.9164  163.3048 C.3     1  UNL1        0.0738
      4 C         142.9854  141.0857  164.5363 C.3     1  UNL1        0.0372
      5 C         143.2966  139.7652  165.1761 C.3     1  UNL1        0.0245
      6 C         142.6490  139.7414  166.5290 C.3     1  UNL1        0.0909
      7 N         141.9375  141.0474  166.7252 N.pl3   1  UNL1       -0.3076
      8 C         142.1454  141.8781  165.4937 C.3     1  UNL1        0.0901
      9 C         141.8342  143.1986  164.8539 C.3     1  UNL1        0.0921
     10 C         141.1555  141.4516  167.9397 C.ar    1  UNL1        0.0501
     11 C         140.3743  140.4247  168.7047 C.ar    1  UNL1        0.0147
     12 C         139.5923  140.8289  169.9193 C.ar    1  UNL1        0.0036
     13 C         139.5915  142.2599  170.3688 C.ar    1  UNL1        0.0297
     14 C         140.3727  143.2868  169.6038 C.ar    1  UNL1        0.1414
     15 F         140.3719  144.7178  170.0534 F       1  UNL1       -0.2041
     16 C         141.1547  142.8827  168.3893 C.ar    1  UNL1        0.0441
     17 C         142.3254  144.0656  161.0487 C.3     1  UNL1        0.0294
     18 C         141.2096  144.6626  160.2431 C.3     1  UNL1        0.0666
     19 S         139.9636  143.8687  159.9840 S.3     1  UNL1       -0.0756
     20 C         140.7772  140.8783  161.0062 C.3     1  UNL1        0.1340
     21 N         139.6849  141.7367  161.5719 N.ar    1  UNL1       -0.2872
     22 C         139.3110  143.1112  161.1021 C.ar    1  UNL1        0.1933
     23 N         138.1697  143.5953  161.9467 N.ar    1  UNL1       -0.1221
     24 N         137.8383  142.5199  162.9385 N.ar    1  UNL1       -0.1266
     25 C         138.7747  141.3712  162.7070 C.ar    1  UNL1        0.1862
     26 C         138.7971  140.0831  163.4754 C.ar    1  UNL1        0.1362
     27 C         138.6241  138.7779  162.7568 C.ar    1  UNL1        0.1211
     28 N         138.6464  137.4899  163.5252 N.ar    1  UNL1       -0.2390
     29 C         138.8418  137.5072  165.0124 C.ar    1  UNL1        0.1195
     30 C         139.0148  138.8125  165.7311 C.ar    1  UNL1        0.1196
     31 N         138.9924  140.1004  164.9625 N.ar    1  UNL1       -0.2375
@<TRIPOS>BOND
     1    20    21    1
     2    21    22   ar
     3    22    19    1
     4    19    18    1
     5    18    17    1
     6    17     1    1
     7     1     2    1
     8     2     3    1
     9     3     4    1
    10     4     5    1
    11     5     6    1
    12     6     7    1
    13     7    10    1
    14    10    11   ar
    15    11    12   ar
    16    12    13   ar
    17    13    14   ar
    18    14    15    1
    19    14    16   ar
    20     7     8    1
    21     8     9    1
    22    22    23   ar
    23    23    24   ar
    24    24    25   ar
    25    25    26    1
    26    26    27   ar
    27    27    28   ar
    28    28    29   ar
    29    29    30   ar
    30    30    31   ar
    31    25    21   ar
    32    31    26   ar
    33     9     2    1
    34     8     4    1
    35    16    10   ar
