@<TRIPOS>MOLECULE
*****
 33 37 0 0 0
SMALL
GASTEIGER

@<TRIPOS>ATOM
      1 C         141.6753  143.8837  161.5657 C.ar    1  UNL1        0.0670
      2 C         140.6592  142.9891  162.2115 C.ar    1  UNL1        0.0191
      3 C         140.8761  142.4958  163.6113 C.ar    1  UNL1        0.0203
      4 C         142.1092  142.8971  164.3653 C.ar    1  UNL1        0.0795
      5 C         143.1253  143.7917  163.7195 C.ar    1  UNL1        0.0396
      6 C         144.2355  144.0176  164.7026 C.ar    1  UNL1        0.1216
      7 N         143.9054  143.2626  165.9561 N.ar    1  UNL1       -0.1677
      8 N         142.5913  142.5701  165.7477 N.ar    1  UNL1       -0.2495
      9 C         142.9084  144.2850  162.3197 C.ar    1  UNL1        0.0207
     10 O         139.5854  145.9644  161.0155 O.2     1  UNL1       -0.2665
     11 C         140.4135  145.4174  159.8907 C.ar    1  UNL1        0.2679
     12 C         140.1966  145.9107  158.4908 C.ar    1  UNL1        0.0980
     13 C         141.0246  145.3636  157.3660 C.ar    1  UNL1        0.1453
     14 C         142.0696  144.3232  157.6411 C.ar    1  UNL1        0.0561
     15 C         142.2865  143.8299  159.0410 C.ar    1  UNL1        0.0860
     16 N         141.4584  144.3770  160.1658 N.ar    1  UNL1       -0.2729
     17 O         140.8077  145.8569  155.9662 O.3     1  UNL1       -0.4704
     18 C         139.4708  146.4043  155.5627 C.3     1  UNL1        0.2320
     19 C         139.2809  147.8847  155.4118 C.ar    1  UNL1        0.0212
     20 C         138.5576  148.6600  156.4727 C.ar    1  UNL1       -0.0007
     21 C         138.3678  150.1403  156.3218 C.ar    1  UNL1       -0.0002
     22 C         138.9013  150.8451  155.1099 C.ar    1  UNL1       -0.0000
     23 C         139.6247  150.0698  154.0490 C.ar    1  UNL1       -0.0002
     24 C         139.8145  148.5895  154.2000 C.ar    1  UNL1       -0.0007
     25 C         141.8836  141.7029  166.7462 C.3     1  UNL1        0.1431
     26 C         141.9679  142.0217  168.2094 C.3     1  UNL1        0.0812
     27 C         140.8817  141.8096  169.2221 C.3     1  UNL1        0.0484
     28 C         141.3956  142.2654  170.5555 C.3     1  UNL1        0.1276
     29 O         140.6387  142.2331  171.8500 O.3     1  UNL1       -0.3830
     30 C         142.7995  142.7592  170.3671 C.3     1  UNL1        0.0982
     31 N         143.1531  142.6086  168.9172 N.3     1  UNL1       -0.2948
     32 H         141.1982  142.5839  172.5605 H       1  UNL1        0.2104
     33 H         143.9567  141.9880  168.8195 H       1  UNL1        0.1233
@<TRIPOS>BOND
     1    10    11    2
     2    11    12   ar
     3    12    13   ar
     4    13    17    1
     5    17    18    1
     6    18    19    1
     7    19    20   ar
     8    20    21   ar
     9    21    22   ar
    10    22    23   ar
    11    23    24   ar
    12    13    14   ar
    13    14    15   ar
    14    15    16   ar
    15    16     1    1
    16     1     2   ar
    17     2     3   ar
    18     3     4   ar
    19     4     5   ar
    20     5     6   ar
    21     6     7   ar
    22     7     8   ar
    23     8    25    1
    24    25    26    1
    25    26    27    1
    26    27    28    1
    27    28    29    1
    28    28    30    1
    29    30    31    1
    30     5     9   ar
    31    16    11   ar
    32     9     1   ar
    33    24    19   ar
    34     8     4   ar
    35    31    26    1
    36    29    32    1
    37    31    33    1
@<TRIPOS>MOLECULE
*****
 33 37 0 0 0
SMALL
GASTEIGER

@<TRIPOS>ATOM
      1 C         140.2915  143.9427  160.6460 C.ar    1  UNL1        0.0670
      2 C         141.0991  145.0903  160.1160 C.ar    1  UNL1        0.0191
      3 C         141.0679  145.4164  158.6523 C.ar    1  UNL1        0.0203
      4 C         140.2292  144.5951  157.7185 C.ar    1  UNL1        0.0795
      5 C         139.4216  143.4475  158.2485 C.ar    1  UNL1        0.0396
      6 C         138.6945  142.8211  157.0958 C.ar    1  UNL1        0.1216
      7 N         139.0526  143.5814  155.8534 N.ar    1  UNL1       -0.1677
      8 N         140.0012  144.6778  156.2382 N.ar    1  UNL1       -0.2495
      9 C         139.4528  143.1214  159.7122 C.ar    1  UNL1        0.0207
     10 O         137.9857  144.7130  162.4038 O.2     1  UNL1       -0.2665
     11 C         139.1697  144.0017  162.9887 C.ar    1  UNL1        0.2679
     12 C         139.2008  143.6755  164.4524 C.ar    1  UNL1        0.0980
     13 C         140.3848  142.9641  165.0374 C.ar    1  UNL1        0.1453
     14 C         141.5377  142.5789  164.1585 C.ar    1  UNL1        0.0561
     15 C         141.5066  142.9051  162.6947 C.ar    1  UNL1        0.0860
     16 N         140.3226  143.6165  162.1098 N.ar    1  UNL1       -0.2729
     17 O         140.4159  142.6379  166.5011 O.3     1  UNL1       -0.4704
     18 C         140.8557  141.2784  166.9573 C.3     1  UNL1        0.2320
     19 C         140.1973  140.0509  166.4005 C.ar    1  UNL1        0.0212
     20 C         140.9497  139.1577  165.4592 C.ar    1  UNL1       -0.0007
     21 C         140.2913  137.9304  164.9024 C.ar    1  UNL1       -0.0002
     22 C         138.8804  137.5963  165.2869 C.ar    1  UNL1       -0.0000
     23 C         138.1280  138.4895  166.2281 C.ar    1  UNL1       -0.0002
     24 C         138.7864  139.7168  166.7849 C.ar    1  UNL1       -0.0007
     25 C         140.6140  145.6809  155.3064 C.3     1  UNL1        0.1431
     26 C         140.0329  147.0597  155.2012 C.3     1  UNL1        0.0812
     27 C         138.9527  147.6301  156.0718 C.3     1  UNL1        0.0484
     28 C         138.6821  149.0331  155.6156 C.3     1  UNL1        0.1276
     29 O         137.6754  149.9741  156.2079 O.3     1  UNL1       -0.3830
     30 C         139.5951  149.3300  154.4630 C.3     1  UNL1        0.0982
     31 N         140.4299  148.1104  154.2069 N.3     1  UNL1       -0.2948
     32 H         137.7005  150.8175  155.7293 H       1  UNL1        0.2104
     33 H         141.4180  148.3374  154.3191 H       1  UNL1        0.1233
@<TRIPOS>BOND
     1    10    11    2
     2    11    12   ar
     3    12    13   ar
     4    13    17    1
     5    17    18    1
     6    18    19    1
     7    19    20   ar
     8    20    21   ar
     9    21    22   ar
    10    22    23   ar
    11    23    24   ar
    12    13    14   ar
    13    14    15   ar
    14    15    16   ar
    15    16     1    1
    16     1     2   ar
    17     2     3   ar
    18     3     4   ar
    19     4     5   ar
    20     5     6   ar
    21     6     7   ar
    22     7     8   ar
    23     8    25    1
    24    25    26    1
    25    26    27    1
    26    27    28    1
    27    28    29    1
    28    28    30    1
    29    30    31    1
    30     5     9   ar
    31    16    11   ar
    32     9     1   ar
    33    24    19   ar
    34     8     4   ar
    35    31    26    1
    36    29    32    1
    37    31    33    1
@<TRIPOS>MOLECULE
*****
 33 37 0 0 0
SMALL
GASTEIGER

@<TRIPOS>ATOM
      1 C         140.6861  138.9758  161.8746 C.ar    1  UNL1        0.0670
      2 C         141.2837  140.2288  162.4428 C.ar    1  UNL1        0.0191
      3 C         140.9897  140.6243  163.8595 C.ar    1  UNL1        0.0203
      4 C         140.0982  139.7669  164.7080 C.ar    1  UNL1        0.0795
      5 C         139.5006  138.5139  164.1399 C.ar    1  UNL1        0.0396
      6 C         138.6650  137.8731  165.2081 C.ar    1  UNL1        0.1216
      7 N         138.7462  138.7301  166.4366 N.ar    1  UNL1       -0.1677
      8 N         139.6320  139.9005  166.1275 N.ar    1  UNL1       -0.2495
      9 C         139.7945  138.1184  162.7232 C.ar    1  UNL1        0.0207
     10 O         143.3737  137.8519  161.1579 O.2     1  UNL1       -0.2665
     11 C         142.3238  138.0183  160.0995 C.ar    1  UNL1        0.2679
     12 C         142.6177  137.6227  158.6828 C.ar    1  UNL1        0.0980
     13 C         141.5679  137.7890  157.6244 C.ar    1  UNL1        0.1453
     14 C         140.2241  138.3509  157.9827 C.ar    1  UNL1        0.0561
     15 C         139.9301  138.7465  159.3995 C.ar    1  UNL1        0.0860
     16 N         140.9800  138.5802  160.4579 N.ar    1  UNL1       -0.2729
     17 O         141.8618  137.3934  156.2077 O.3     1  UNL1       -0.4704
     18 C         143.0151  136.4826  155.9073 C.3     1  UNL1        0.2320
     19 C         142.8622  134.9995  156.0719 C.ar    1  UNL1        0.0212
     20 C         141.8297  134.2589  155.2748 C.ar    1  UNL1       -0.0007
     21 C         141.6768  132.7759  155.4394 C.ar    1  UNL1       -0.0002
     22 C         142.5564  132.0334  156.4011 C.ar    1  UNL1       -0.0000
     23 C         143.5889  132.7739  157.1983 C.ar    1  UNL1       -0.0002
     24 C         143.7418  134.2570  157.0336 C.ar    1  UNL1       -0.0007
     25 C         139.9888  141.0098  167.0720 C.3     1  UNL1        0.1431
     26 C         140.2217  140.7129  168.5238 C.3     1  UNL1        0.0812
     27 C         141.4114  141.1403  169.3314 C.3     1  UNL1        0.0484
     28 C         141.2308  140.6280  170.7295 C.3     1  UNL1        0.1276
     29 O         142.1840  140.8251  171.8707 O.3     1  UNL1       -0.3830
     30 C         139.9295  139.8840  170.7862 C.3     1  UNL1        0.0982
     31 N         139.3059  139.9365  169.4230 N.3     1  UNL1       -0.2948
     32 H         141.8311  140.3942  172.6649 H       1  UNL1        0.2104
     33 H         138.3982  140.3989  169.4751 H       1  UNL1        0.1233
@<TRIPOS>BOND
     1    10    11    2
     2    11    12   ar
     3    12    13   ar
     4    13    17    1
     5    17    18    1
     6    18    19    1
     7    19    20   ar
     8    20    21   ar
     9    21    22   ar
    10    22    23   ar
    11    23    24   ar
    12    13    14   ar
    13    14    15   ar
    14    15    16   ar
    15    16     1    1
    16     1     2   ar
    17     2     3   ar
    18     3     4   ar
    19     4     5   ar
    20     5     6   ar
    21     6     7   ar
    22     7     8   ar
    23     8    25    1
    24    25    26    1
    25    26    27    1
    26    27    28    1
    27    28    29    1
    28    28    30    1
    29    30    31    1
    30     5     9   ar
    31    16    11   ar
    32     9     1   ar
    33    24    19   ar
    34     8     4   ar
    35    31    26    1
    36    29    32    1
    37    31    33    1
@<TRIPOS>MOLECULE
*****
 33 37 0 0 0
SMALL
GASTEIGER

@<TRIPOS>ATOM
      1 C         139.3030  142.7375  160.2946 C.ar    1  UNL1        0.0670
      2 C         140.3617  143.7850  160.1166 C.ar    1  UNL1        0.0191
      3 C         140.5624  144.4282  158.7765 C.ar    1  UNL1        0.0203
      4 C         139.7044  144.0238  157.6144 C.ar    1  UNL1        0.0795
      5 C         138.6457  142.9763  157.7925 C.ar    1  UNL1        0.0396
      6 C         137.9577  142.7838  156.4736 C.ar    1  UNL1        0.1216
      7 N         138.5912  143.7123  155.4803 N.ar    1  UNL1       -0.1677
      8 N         139.6708  144.4788  156.1854 N.ar    1  UNL1       -0.2495
      9 C         138.4450  142.3331  159.1326 C.ar    1  UNL1        0.0207
     10 O         137.7263  144.1544  162.4174 O.2     1  UNL1       -0.2665
     11 C         138.3138  142.8027  162.6962 C.ar    1  UNL1        0.2679
     12 C         138.1131  142.1595  164.0363 C.ar    1  UNL1        0.0980
     13 C         138.7006  140.8078  164.3151 C.ar    1  UNL1        0.1453
     14 C         139.4890  140.0993  163.2537 C.ar    1  UNL1        0.0561
     15 C         139.6898  140.7425  161.9135 C.ar    1  UNL1        0.0860
     16 N         139.1022  142.0942  161.6348 N.ar    1  UNL1       -0.2729
     17 O         138.4998  140.1646  165.6552 O.3     1  UNL1       -0.4704
     18 C         139.6693  139.9614  166.5723 C.3     1  UNL1        0.2320
     19 C         139.8544  140.8569  167.7614 C.ar    1  UNL1        0.0212
     20 C         139.4772  140.3735  169.1303 C.ar    1  UNL1       -0.0007
     21 C         139.6624  141.2690  170.3193 C.ar    1  UNL1       -0.0002
     22 C         140.2248  142.6479  170.1393 C.ar    1  UNL1       -0.0000
     23 C         140.6020  143.1313  168.7704 C.ar    1  UNL1       -0.0002
     24 C         140.4168  142.2358  167.5814 C.ar    1  UNL1       -0.0007
     25 C         140.5604  145.5176  155.5696 C.3     1  UNL1        0.1431
     26 C         140.0384  146.9024  155.3247 C.3     1  UNL1        0.0812
     27 C         138.9757  147.5980  156.1229 C.3     1  UNL1        0.0484
     28 C         138.7679  148.9601  155.5302 C.3     1  UNL1        0.1276
     29 O         137.7965  149.9944  156.0165 O.3     1  UNL1       -0.3830
     30 C         139.7021  149.1064  154.3657 C.3     1  UNL1        0.0982
     31 N         140.4872  147.8347  154.2387 N.3     1  UNL1       -0.2948
     32 H         137.8608  150.7857  155.4592 H       1  UNL1        0.2104
     33 H         141.4830  148.0310  154.3407 H       1  UNL1        0.1233
@<TRIPOS>BOND
     1    10    11    2
     2    11    12   ar
     3    12    13   ar
     4    13    17    1
     5    17    18    1
     6    18    19    1
     7    19    20   ar
     8    20    21   ar
     9    21    22   ar
    10    22    23   ar
    11    23    24   ar
    12    13    14   ar
    13    14    15   ar
    14    15    16   ar
    15    16     1    1
    16     1     2   ar
    17     2     3   ar
    18     3     4   ar
    19     4     5   ar
    20     5     6   ar
    21     6     7   ar
    22     7     8   ar
    23     8    25    1
    24    25    26    1
    25    26    27    1
    26    27    28    1
    27    28    29    1
    28    28    30    1
    29    30    31    1
    30     5     9   ar
    31    16    11   ar
    32     9     1   ar
    33    24    19   ar
    34     8     4   ar
    35    31    26    1
    36    29    32    1
    37    31    33    1
@<TRIPOS>MOLECULE
*****
 33 37 0 0 0
SMALL
GASTEIGER

@<TRIPOS>ATOM
      1 C         141.4282  143.7628  161.5949 C.ar    1  UNL1        0.0670
      2 C         142.2203  144.4556  162.6637 C.ar    1  UNL1        0.0191
      3 C         142.1799  143.9485  164.0748 C.ar    1  UNL1        0.0203
      4 C         141.3474  142.7486  164.4170 C.ar    1  UNL1        0.0795
      5 C         140.5552  142.0558  163.3482 C.ar    1  UNL1        0.0396
      6 C         139.8311  140.9045  163.9807 C.ar    1  UNL1        0.1216
      7 N         140.1758  140.8857  165.4405 N.ar    1  UNL1       -0.1677
      8 N         141.1129  142.0255  165.7102 N.ar    1  UNL1       -0.2495
      9 C         140.5956  142.5629  161.9371 C.ar    1  UNL1        0.0207
     10 O         139.5331  145.9178  160.7206 O.2     1  UNL1       -0.2665
     11 C         140.5210  145.3473  159.7465 C.ar    1  UNL1        0.2679
     12 C         140.5614  145.8544  158.3355 C.ar    1  UNL1        0.0980
     13 C         141.5493  145.2839  157.3614 C.ar    1  UNL1        0.1453
     14 C         142.4968  144.2064  157.7986 C.ar    1  UNL1        0.0561
     15 C         142.4564  143.6993  159.2097 C.ar    1  UNL1        0.0860
     16 N         141.4686  144.2698  160.1837 N.ar    1  UNL1       -0.2729
     17 O         141.5896  145.7910  155.9503 O.3     1  UNL1       -0.4704
     18 C         140.3124  146.1076  155.2304 C.3     1  UNL1        0.2320
     19 C         139.9072  147.5356  155.0146 C.ar    1  UNL1        0.0212
     20 C         138.9910  148.2111  155.9914 C.ar    1  UNL1       -0.0007
     21 C         138.5858  149.6391  155.7756 C.ar    1  UNL1       -0.0002
     22 C         139.0968  150.3916  154.5829 C.ar    1  UNL1       -0.0000
     23 C         140.0130  149.7161  153.6060 C.ar    1  UNL1       -0.0002
     24 C         140.4181  148.2881  153.8218 C.ar    1  UNL1       -0.0007
     25 C         141.7105  142.3799  167.0395 C.3     1  UNL1        0.1431
     26 C         140.9065  142.2054  168.2938 C.3     1  UNL1        0.0812
     27 C         140.4724  143.3007  169.2223 C.3     1  UNL1        0.0484
     28 C         139.6930  142.6773  170.3421 C.3     1  UNL1        0.1276
     29 O         139.0706  143.4063  171.4957 O.3     1  UNL1       -0.3830
     30 C         139.6454  141.1967  170.1057 C.3     1  UNL1        0.0982
     31 N         140.3953  140.9052  168.8398 N.3     1  UNL1       -0.2948
     32 H         138.6248  142.7707  172.0772 H       1  UNL1        0.2104
     33 H         139.7725  140.4660  168.1618 H       1  UNL1        0.1233
@<TRIPOS>BOND
     1    10    11    2
     2    11    12   ar
     3    12    13   ar
     4    13    17    1
     5    17    18    1
     6    18    19    1
     7    19    20   ar
     8    20    21   ar
     9    21    22   ar
    10    22    23   ar
    11    23    24   ar
    12    13    14   ar
    13    14    15   ar
    14    15    16   ar
    15    16     1    1
    16     1     2   ar
    17     2     3   ar
    18     3     4   ar
    19     4     5   ar
    20     5     6   ar
    21     6     7   ar
    22     7     8   ar
    23     8    25    1
    24    25    26    1
    25    26    27    1
    26    27    28    1
    27    28    29    1
    28    28    30    1
    29    30    31    1
    30     5     9   ar
    31    16    11   ar
    32     9     1   ar
    33    24    19   ar
    34     8     4   ar
    35    31    26    1
    36    29    32    1
    37    31    33    1
@<TRIPOS>MOLECULE
*****
 33 37 0 0 0
SMALL
GASTEIGER

@<TRIPOS>ATOM
      1 C         141.8462  139.0842  162.2505 C.ar    1  UNL1        0.0670
      2 C         141.8073  138.0074  163.2940 C.ar    1  UNL1        0.0191
      3 C         141.9931  138.3579  164.7406 C.ar    1  UNL1        0.0203
      4 C         142.2177  139.7851  165.1437 C.ar    1  UNL1        0.0795
      5 C         142.2566  140.8619  164.1002 C.ar    1  UNL1        0.0396
      6 C         142.4940  142.1708  164.7934 C.ar    1  UNL1        0.1216
      7 N         142.6018  141.9029  166.2653 N.ar    1  UNL1       -0.1677
      8 N         142.4311  140.4285  166.4819 N.ar    1  UNL1       -0.2495
      9 C         142.0709  140.5115  162.6536 C.ar    1  UNL1        0.0207
     10 O         144.2269  138.4180  160.5509 O.2     1  UNL1       -0.2665
     11 C         142.8508  138.4007  159.9541 C.ar    1  UNL1        0.2679
     12 C         142.6651  138.0502  158.5075 C.ar    1  UNL1        0.0980
     13 C         141.2890  138.0329  157.9106 C.ar    1  UNL1        0.1453
     14 C         140.0987  138.3661  158.7604 C.ar    1  UNL1        0.0561
     15 C         140.2844  138.7165  160.2071 C.ar    1  UNL1        0.0860
     16 N         141.6605  138.7338  160.8039 N.ar    1  UNL1       -0.2729
     17 O         141.1033  137.6825  156.4640 O.3     1  UNL1       -0.4704
     18 C         142.1602  136.9028  155.7396 C.3     1  UNL1        0.2320
     19 C         142.2577  135.4177  155.9273 C.ar    1  UNL1        0.0212
     20 C         141.3796  134.5014  155.1278 C.ar    1  UNL1       -0.0007
     21 C         141.4772  133.0165  155.3156 C.ar    1  UNL1       -0.0002
     22 C         142.4529  132.4478  156.3028 C.ar    1  UNL1       -0.0000
     23 C         143.3310  133.3641  157.1023 C.ar    1  UNL1       -0.0002
     24 C         143.2335  134.8491  156.9145 C.ar    1  UNL1       -0.0007
     25 C         142.4673  139.7215  167.8043 C.3     1  UNL1        0.1431
     26 C         141.5547  140.1564  168.9125 C.3     1  UNL1        0.0812
     27 C         141.9203  141.0605  170.0523 C.3     1  UNL1        0.0484
     28 C         140.7079  141.2264  170.9196 C.3     1  UNL1        0.1276
     29 O         140.6249  142.0493  172.1709 O.3     1  UNL1       -0.3830
     30 C         139.5928  140.4248  170.3160 C.3     1  UNL1        0.0982
     31 N         140.1162  139.7636  169.0755 N.3     1  UNL1       -0.2948
     32 H         139.7300  141.9872  172.5400 H       1  UNL1        0.2104
     33 H         139.5790  140.0728  168.2655 H       1  UNL1        0.1233
@<TRIPOS>BOND
     1    10    11    2
     2    11    12   ar
     3    12    13   ar
     4    13    17    1
     5    17    18    1
     6    18    19    1
     7    19    20   ar
     8    20    21   ar
     9    21    22   ar
    10    22    23   ar
    11    23    24   ar
    12    13    14   ar
    13    14    15   ar
    14    15    16   ar
    15    16     1    1
    16     1     2   ar
    17     2     3   ar
    18     3     4   ar
    19     4     5   ar
    20     5     6   ar
    21     6     7   ar
    22     7     8   ar
    23     8    25    1
    24    25    26    1
    25    26    27    1
    26    27    28    1
    27    28    29    1
    28    28    30    1
    29    30    31    1
    30     5     9   ar
    31    16    11   ar
    32     9     1   ar
    33    24    19   ar
    34     8     4   ar
    35    31    26    1
    36    29    32    1
    37    31    33    1
@<TRIPOS>MOLECULE
*****
 33 37 0 0 0
SMALL
GASTEIGER

@<TRIPOS>ATOM
      1 C         140.2609  139.1763  163.7454 C.ar    1  UNL1        0.0670
      2 C         141.0122  140.2231  164.5133 C.ar    1  UNL1        0.0191
      3 C         140.6542  140.5066  165.9421 C.ar    1  UNL1        0.0203
      4 C         139.5448  139.7433  166.6029 C.ar    1  UNL1        0.0795
      5 C         138.7935  138.6965  165.8349 C.ar    1  UNL1        0.0396
      6 C         137.7556  138.1096  166.7450 C.ar    1  UNL1        0.1216
      7 N         137.8654  138.7936  168.0754 N.ar    1  UNL1       -0.1677
      8 N         138.9712  139.8033  167.9876 N.ar    1  UNL1       -0.2495
      9 C         139.1516  138.4130  164.4062 C.ar    1  UNL1        0.0207
     10 O         138.2052  139.5191  161.5875 O.2     1  UNL1       -0.2665
     11 C         139.5911  139.0642  161.2376 C.ar    1  UNL1        0.2679
     12 C         139.9491  138.7807  159.8088 C.ar    1  UNL1        0.0980
     13 C         141.3351  138.3258  159.4589 C.ar    1  UNL1        0.1453
     14 C         142.3629  138.1544  160.5379 C.ar    1  UNL1        0.0561
     15 C         142.0049  138.4379  161.9667 C.ar    1  UNL1        0.0860
     16 N         140.6190  138.8928  162.3165 N.ar    1  UNL1       -0.2729
     17 O         141.6931  138.0423  158.0302 O.3     1  UNL1       -0.4704
     18 C         140.6571  137.4995  157.0910 C.3     1  UNL1        0.2320
     19 C         141.0573  136.5513  155.9997 C.ar    1  UNL1        0.0212
     20 C         140.3679  136.6058  154.6686 C.ar    1  UNL1       -0.0007
     21 C         140.7681  135.6576  153.5774 C.ar    1  UNL1       -0.0002
     22 C         141.8577  134.6551  153.8172 C.ar    1  UNL1       -0.0000
     23 C         142.5471  134.6006  155.1483 C.ar    1  UNL1       -0.0002
     24 C         142.1469  135.5487  156.2395 C.ar    1  UNL1       -0.0007
     25 C         139.4240  140.7133  169.0908 C.3     1  UNL1        0.1431
     26 C         140.8614  140.7148  169.5193 C.3     1  UNL1        0.0812
     27 C         141.5153  139.7053  170.4158 C.3     1  UNL1        0.0484
     28 C         142.9554  140.0927  170.5771 C.3     1  UNL1        0.1276
     29 O         143.9795  139.3599  171.3921 O.3     1  UNL1       -0.3830
     30 C         143.1916  141.3416  169.7805 C.3     1  UNL1        0.0982
     31 N         141.8975  141.7260  169.1267 N.3     1  UNL1       -0.2948
     32 H         144.8319  139.8185  171.3283 H       1  UNL1        0.2104
     33 H         142.0098  141.7308  168.1129 H       1  UNL1        0.1233
@<TRIPOS>BOND
     1    10    11    2
     2    11    12   ar
     3    12    13   ar
     4    13    17    1
     5    17    18    1
     6    18    19    1
     7    19    20   ar
     8    20    21   ar
     9    21    22   ar
    10    22    23   ar
    11    23    24   ar
    12    13    14   ar
    13    14    15   ar
    14    15    16   ar
    15    16     1    1
    16     1     2   ar
    17     2     3   ar
    18     3     4   ar
    19     4     5   ar
    20     5     6   ar
    21     6     7   ar
    22     7     8   ar
    23     8    25    1
    24    25    26    1
    25    26    27    1
    26    27    28    1
    27    28    29    1
    28    28    30    1
    29    30    31    1
    30     5     9   ar
    31    16    11   ar
    32     9     1   ar
    33    24    19   ar
    34     8     4   ar
    35    31    26    1
    36    29    32    1
    37    31    33    1
@<TRIPOS>MOLECULE
*****
 33 37 0 0 0
SMALL
GASTEIGER

@<TRIPOS>ATOM
      1 C         140.1029  142.9407  161.1594 C.ar    1  UNL1        0.0670
      2 C         138.9006  143.0248  162.0523 C.ar    1  UNL1        0.0191
      3 C         138.8986  142.3192  163.3759 C.ar    1  UNL1        0.0203
      4 C         140.0989  141.5295  163.8066 C.ar    1  UNL1        0.0795
      5 C         141.3012  141.4453  162.9137 C.ar    1  UNL1        0.0396
      6 C         142.3307  140.5982  163.6011 C.ar    1  UNL1        0.1216
      7 N         141.7646  140.1588  164.9189 N.ar    1  UNL1       -0.1677
      8 N         140.3853  140.7343  165.0460 N.ar    1  UNL1       -0.2495
      9 C         141.3032  142.1509  161.5901 C.ar    1  UNL1        0.0207
     10 O         140.5593  145.9034  161.0397 O.2     1  UNL1       -0.2665
     11 C         140.3331  145.1277  159.7758 C.ar    1  UNL1        0.2679
     12 C         140.3351  145.8333  158.4522 C.ar    1  UNL1        0.0980
     13 C         140.1090  145.0577  157.1883 C.ar    1  UNL1        0.1453
     14 C         139.8808  143.5763  157.2482 C.ar    1  UNL1        0.0561
     15 C         139.8788  142.8707  158.5719 C.ar    1  UNL1        0.0860
     16 N         140.1049  143.6464  159.8357 N.ar    1  UNL1       -0.2729
     17 O         140.1110  145.7633  155.8647 O.3     1  UNL1       -0.4704
     18 C         138.9137  146.5593  155.4374 C.3     1  UNL1        0.2320
     19 C         138.9513  148.0579  155.4907 C.ar    1  UNL1        0.0212
     20 C         139.4931  148.8364  154.3287 C.ar    1  UNL1       -0.0007
     21 C         139.5308  150.3350  154.3821 C.ar    1  UNL1       -0.0002
     22 C         139.0266  151.0550  155.5976 C.ar    1  UNL1       -0.0000
     23 C         138.4848  150.2765  156.7596 C.ar    1  UNL1       -0.0002
     24 C         138.4472  148.7780  156.7062 C.ar    1  UNL1       -0.0007
     25 C         139.4556  140.5476  166.2082 C.3     1  UNL1        0.1431
     26 C         140.0084  140.4025  167.5950 C.3     1  UNL1        0.0812
     27 C         139.2420  139.9663  168.8085 C.3     1  UNL1        0.0484
     28 C         140.1845  139.9625  169.9754 C.3     1  UNL1        0.1276
     29 O         139.8389  139.5902  171.3867 O.3     1  UNL1       -0.3830
     30 C         141.5334  140.3963  169.4831 C.3     1  UNL1        0.0982
     31 N         141.4245  140.6682  168.0120 N.3     1  UNL1       -0.2948
     32 H         140.6278  139.6720  171.9451 H       1  UNL1        0.2104
     33 H         142.0574  140.0546  167.4988 H       1  UNL1        0.1233
@<TRIPOS>BOND
     1    10    11    2
     2    11    12   ar
     3    12    13   ar
     4    13    17    1
     5    17    18    1
     6    18    19    1
     7    19    20   ar
     8    20    21   ar
     9    21    22   ar
    10    22    23   ar
    11    23    24   ar
    12    13    14   ar
    13    14    15   ar
    14    15    16   ar
    15    16     1    1
    16     1     2   ar
    17     2     3   ar
    18     3     4   ar
    19     4     5   ar
    20     5     6   ar
    21     6     7   ar
    22     7     8   ar
    23     8    25    1
    24    25    26    1
    25    26    27    1
    26    27    28    1
    27    28    29    1
    28    28    30    1
    29    30    31    1
    30     5     9   ar
    31    16    11   ar
    32     9     1   ar
    33    24    19   ar
    34     8     4   ar
    35    31    26    1
    36    29    32    1
    37    31    33    1
@<TRIPOS>MOLECULE
*****
 33 37 0 0 0
SMALL
GASTEIGER

@<TRIPOS>ATOM
      1 C         140.0810  142.0490  158.9641 C.ar    1  UNL1        0.0670
      2 C         138.8677  142.3627  158.1398 C.ar    1  UNL1        0.0191
      3 C         138.8617  143.5634  157.2409 C.ar    1  UNL1        0.0203
      4 C         140.0690  144.4505  157.1662 C.ar    1  UNL1        0.0795
      5 C         141.2823  144.1368  157.9905 C.ar    1  UNL1        0.0396
      6 C         142.3169  145.1863  157.7106 C.ar    1  UNL1        0.1216
      7 N         141.7429  146.1486  156.7134 N.ar    1  UNL1       -0.1677
      8 N         140.3537  145.6939  156.3769 N.ar    1  UNL1       -0.2495
      9 C         141.2883  142.9360  158.8894 C.ar    1  UNL1        0.0207
     10 O         141.5704  139.5747  158.1519 O.2     1  UNL1       -0.2665
     11 C         140.8318  139.6110  159.4569 C.ar    1  UNL1        0.2679
     12 C         140.8378  138.4103  160.3558 C.ar    1  UNL1        0.0980
     13 C         140.0992  138.4466  161.6609 C.ar    1  UNL1        0.1453
     14 C         139.3545  139.6837  162.0670 C.ar    1  UNL1        0.0561
     15 C         139.3484  140.8845  161.1680 C.ar    1  UNL1        0.0860
     16 N         140.0871  140.8482  159.8630 N.ar    1  UNL1       -0.2729
     17 O         140.1052  137.2458  162.5598 O.3     1  UNL1       -0.4704
     18 C         140.7849  137.3121  163.8953 C.3     1  UNL1        0.2320
     19 C         140.1375  138.0484  165.0306 C.ar    1  UNL1        0.0212
     20 C         138.7121  137.7586  165.3967 C.ar    1  UNL1       -0.0007
     21 C         138.0648  138.4948  166.5319 C.ar    1  UNL1       -0.0002
     22 C         138.8429  139.5210  167.3011 C.ar    1  UNL1       -0.0000
     23 C         140.2683  139.8108  166.9350 C.ar    1  UNL1       -0.0002
     24 C         140.9156  139.0745  165.7997 C.ar    1  UNL1       -0.0007
     25 C         139.4141  146.3648  155.4193 C.3     1  UNL1        0.1431
     26 C         139.1361  147.8333  155.5460 C.3     1  UNL1        0.0812
     27 C         139.3654  148.8689  154.4853 C.3     1  UNL1        0.0484
     28 C         138.9510  150.1997  155.0394 C.3     1  UNL1        0.1276
     29 O         139.0115  151.5129  154.3173 O.3     1  UNL1       -0.3830
     30 C         138.4655  149.9867  156.4427 C.3     1  UNL1        0.0982
     31 N         138.5799  148.5242  156.7557 N.3     1  UNL1       -0.2948
     32 H         138.6854  152.2172  154.8992 H       1  UNL1        0.2104
     33 H         137.6596  148.1449  156.9785 H       1  UNL1        0.1233
@<TRIPOS>BOND
     1    10    11    2
     2    11    12   ar
     3    12    13   ar
     4    13    17    1
     5    17    18    1
     6    18    19    1
     7    19    20   ar
     8    20    21   ar
     9    21    22   ar
    10    22    23   ar
    11    23    24   ar
    12    13    14   ar
    13    14    15   ar
    14    15    16   ar
    15    16     1    1
    16     1     2   ar
    17     2     3   ar
    18     3     4   ar
    19     4     5   ar
    20     5     6   ar
    21     6     7   ar
    22     7     8   ar
    23     8    25    1
    24    25    26    1
    25    26    27    1
    26    27    28    1
    27    28    29    1
    28    28    30    1
    29    30    31    1
    30     5     9   ar
    31    16    11   ar
    32     9     1   ar
    33    24    19   ar
    34     8     4   ar
    35    31    26    1
    36    29    32    1
    37    31    33    1
