@<TRIPOS>MOLECULE
*****
 30 33 0 0 0
SMALL
GASTEIGER

@<TRIPOS>ATOM
      1 O         142.6433  140.1964  165.9264 O.2     1  UNL1       -0.2665
      2 C         142.1224  140.0803  167.3282 C.ar    1  UNL1        0.2679
      3 C         142.8992  139.3115  168.3556 C.ar    1  UNL1        0.0980
      4 C         142.3783  139.1954  169.7575 C.ar    1  UNL1        0.1453
      5 C         141.0808  139.8481  170.1320 C.ar    1  UNL1        0.0561
      6 C         140.3040  140.6168  169.1046 C.ar    1  UNL1        0.0860
      7 N         140.8249  140.7330  167.7027 N.ar    1  UNL1       -0.2729
      8 C         140.0481  141.5018  166.6753 C.ar    1  UNL1        0.0671
      9 C         140.1552  142.9969  166.6181 C.ar    1  UNL1        0.0207
     10 C         139.3784  143.7657  165.5908 C.ar    1  UNL1        0.0384
     11 C         138.4945  143.0395  164.6205 C.ar    1  UNL1        0.1387
     12 C         138.3874  141.5444  164.6777 C.ar    1  UNL1        0.0384
     13 C         139.1642  140.7756  165.7051 C.ar    1  UNL1        0.0207
     14 O         137.7177  143.8083  163.5932 O.3     1  UNL1       -0.4740
     15 C         138.4270  144.4288  162.4261 C.3     1  UNL1        0.2226
     16 C         139.5498  145.3958  162.6587 C.3     1  UNL1        0.1202
     17 N         140.9704  144.9579  162.4584 N.3     1  UNL1       -0.2653
     18 C         142.0249  145.3575  163.4475 C.3     1  UNL1        0.1047
     19 C         143.4455  144.9196  163.2473 C.3     1  UNL1        0.1595
     20 O         143.8117  144.0821  162.0579 O.3     1  UNL1       -0.3508
     21 C         142.7571  143.6825  161.0688 C.3     1  UNL1        0.1595
     22 C         141.3365  144.1204  161.2690 C.3     1  UNL1        0.1047
     23 O         143.1552  138.4266  170.7849 O.3     1  UNL1       -0.4704
     24 C         143.8491  137.1530  170.4022 C.3     1  UNL1        0.2320
     25 C         144.7127  136.4403  171.4002 C.ar    1  UNL1        0.0212
     26 C         144.5398  134.9673  171.6252 C.ar    1  UNL1       -0.0007
     27 C         145.4035  134.2546  172.6233 C.ar    1  UNL1       -0.0002
     28 C         146.4401  135.0149  173.3964 C.ar    1  UNL1       -0.0000
     29 C         146.6129  136.4878  173.1714 C.ar    1  UNL1       -0.0002
     30 C         145.7493  137.2005  172.1734 C.ar    1  UNL1       -0.0007
@<TRIPOS>BOND
     1     1     2    2
     2     2     3   ar
     3     3     4   ar
     4     4    23    1
     5    23    24    1
     6    24    25    1
     7    25    26   ar
     8    26    27   ar
     9    27    28   ar
    10    28    29   ar
    11    29    30   ar
    12     4     5   ar
    13     5     6   ar
    14     6     7   ar
    15     7     8    1
    16     8     9   ar
    17     9    10   ar
    18    10    11   ar
    19    11    14    1
    20    14    15    1
    21    15    16    1
    22    16    17    1
    23    17    18    1
    24    18    19    1
    25    19    20    1
    26    20    21    1
    27    21    22    1
    28    11    12   ar
    29    12    13   ar
    30     7     2   ar
    31    13     8   ar
    32    30    25   ar
    33    22    17    1
@<TRIPOS>MOLECULE
*****
 30 33 0 0 0
SMALL
GASTEIGER

@<TRIPOS>ATOM
      1 O         137.4990  144.1646  162.7928 O.2     1  UNL1       -0.2665
      2 C         138.1927  142.8475  162.9774 C.ar    1  UNL1        0.2679
      3 C         137.8162  141.9557  164.1232 C.ar    1  UNL1        0.0980
      4 C         138.5099  140.6386  164.3078 C.ar    1  UNL1        0.1453
      5 C         139.5801  140.2134  163.3466 C.ar    1  UNL1        0.0561
      6 C         139.9566  141.1053  162.2009 C.ar    1  UNL1        0.0860
      7 N         139.2629  142.4223  162.0163 N.ar    1  UNL1       -0.2729
      8 C         139.6394  143.3142  160.8705 C.ar    1  UNL1        0.0671
      9 C         139.2861  142.9212  159.4666 C.ar    1  UNL1        0.0207
     10 C         139.6626  143.8131  158.3208 C.ar    1  UNL1        0.0384
     11 C         140.3924  145.0979  158.5789 C.ar    1  UNL1        0.1387
     12 C         140.7457  145.4909  159.9827 C.ar    1  UNL1        0.0384
     13 C         140.3692  144.5990  161.1285 C.ar    1  UNL1        0.0207
     14 O         140.7689  145.9898  157.4331 O.3     1  UNL1       -0.4740
     15 C         139.7400  146.3721  156.4107 C.3     1  UNL1        0.2226
     16 C         138.8909  147.5907  156.6207 C.3     1  UNL1        0.1202
     17 N         139.0074  148.7564  155.6839 N.3     1  UNL1       -0.2653
     18 C         138.4435  150.0907  156.0734 C.3     1  UNL1        0.1047
     19 C         138.5600  151.2565  155.1366 C.3     1  UNL1        0.1595
     20 O         139.2403  151.0879  153.8105 O.3     1  UNL1       -0.3508
     21 C         139.8042  149.7536  153.4210 C.3     1  UNL1        0.1595
     22 C         139.6877  148.5878  154.3577 C.3     1  UNL1        0.1047
     23 O         138.1334  139.7467  165.4536 O.3     1  UNL1       -0.4704
     24 C         139.1504  139.4011  166.5006 C.3     1  UNL1        0.2320
     25 C         139.5462  140.4206  167.5272 C.ar    1  UNL1        0.0212
     26 C         139.2116  140.1988  168.9724 C.ar    1  UNL1       -0.0007
     27 C         139.6074  141.2184  169.9990 C.ar    1  UNL1       -0.0002
     28 C         140.3378  142.4598  169.5803 C.ar    1  UNL1       -0.0000
     29 C         140.6724  142.6816  168.1350 C.ar    1  UNL1       -0.0002
     30 C         140.2767  141.6621  167.1085 C.ar    1  UNL1       -0.0007
@<TRIPOS>BOND
     1     1     2    2
     2     2     3   ar
     3     3     4   ar
     4     4    23    1
     5    23    24    1
     6    24    25    1
     7    25    26   ar
     8    26    27   ar
     9    27    28   ar
    10    28    29   ar
    11    29    30   ar
    12     4     5   ar
    13     5     6   ar
    14     6     7   ar
    15     7     8    1
    16     8     9   ar
    17     9    10   ar
    18    10    11   ar
    19    11    14    1
    20    14    15    1
    21    15    16    1
    22    16    17    1
    23    17    18    1
    24    18    19    1
    25    19    20    1
    26    20    21    1
    27    21    22    1
    28    11    12   ar
    29    12    13   ar
    30     7     2   ar
    31    13     8   ar
    32    30    25   ar
    33    22    17    1
@<TRIPOS>MOLECULE
*****
 30 33 0 0 0
SMALL
GASTEIGER

@<TRIPOS>ATOM
      1 O         141.1606  136.6739  163.0835 O.2     1  UNL1       -0.2665
      2 C         140.3418  137.9045  163.3387 C.ar    1  UNL1        0.2679
      3 C         139.5395  138.0233  164.6005 C.ar    1  UNL1        0.0980
      4 C         138.7207  139.2539  164.8556 C.ar    1  UNL1        0.1453
      5 C         138.7041  140.3657  163.8489 C.ar    1  UNL1        0.0561
      6 C         139.5064  140.2470  162.5871 C.ar    1  UNL1        0.0860
      7 N         140.3252  139.0164  162.3320 N.ar    1  UNL1       -0.2729
      8 C         141.1275  138.8976  161.0701 C.ar    1  UNL1        0.0671
      9 C         142.6213  139.0253  161.1163 C.ar    1  UNL1        0.0207
     10 C         143.4236  138.9066  159.8545 C.ar    1  UNL1        0.0384
     11 C         142.7321  138.6602  158.5464 C.ar    1  UNL1        0.1387
     12 C         141.2382  138.5325  158.5001 C.ar    1  UNL1        0.0384
     13 C         140.4359  138.6513  159.7620 C.ar    1  UNL1        0.0207
     14 O         143.5344  138.5415  157.2846 O.3     1  UNL1       -0.4740
     15 C         142.9551  137.8426  156.0904 C.3     1  UNL1        0.2226
     16 C         143.6446  136.6398  155.5178 C.3     1  UNL1        0.1202
     17 N         143.1346  135.2639  155.8289 N.3     1  UNL1       -0.2653
     18 C         141.9756  134.7021  155.0603 C.3     1  UNL1        0.1047
     19 C         141.4656  133.3262  155.3714 C.3     1  UNL1        0.1595
     20 O         142.1147  132.5121  156.4512 O.3     1  UNL1       -0.3508
     21 C         143.2738  133.0740  157.2200 C.3     1  UNL1        0.1595
     22 C         143.7838  134.4499  156.9088 C.3     1  UNL1        0.1047
     23 O         137.9184  139.3726  166.1175 O.3     1  UNL1       -0.4704
     24 C         138.5802  139.1723  167.4486 C.3     1  UNL1        0.2320
     25 C         139.2668  140.3214  168.1254 C.ar    1  UNL1        0.0212
     26 C         139.1291  140.5101  169.6071 C.ar    1  UNL1       -0.0007
     27 C         139.8157  141.6593  170.2838 C.ar    1  UNL1       -0.0002
     28 C         140.6401  142.6197  169.4789 C.ar    1  UNL1       -0.0000
     29 C         140.7778  142.4310  167.9972 C.ar    1  UNL1       -0.0002
     30 C         140.0912  141.2819  167.3204 C.ar    1  UNL1       -0.0007
@<TRIPOS>BOND
     1     1     2    2
     2     2     3   ar
     3     3     4   ar
     4     4    23    1
     5    23    24    1
     6    24    25    1
     7    25    26   ar
     8    26    27   ar
     9    27    28   ar
    10    28    29   ar
    11    29    30   ar
    12     4     5   ar
    13     5     6   ar
    14     6     7   ar
    15     7     8    1
    16     8     9   ar
    17     9    10   ar
    18    10    11   ar
    19    11    14    1
    20    14    15    1
    21    15    16    1
    22    16    17    1
    23    17    18    1
    24    18    19    1
    25    19    20    1
    26    20    21    1
    27    21    22    1
    28    11    12   ar
    29    12    13   ar
    30     7     2   ar
    31    13     8   ar
    32    30    25   ar
    33    22    17    1
@<TRIPOS>MOLECULE
*****
 30 33 0 0 0
SMALL
GASTEIGER

@<TRIPOS>ATOM
      1 O         142.7933  138.1254  161.9607 O.2     1  UNL1       -0.2665
      2 C         141.9684  138.1882  160.7094 C.ar    1  UNL1        0.2679
      3 C         142.6133  137.9630  159.3740 C.ar    1  UNL1        0.0980
      4 C         141.7885  138.0258  158.1227 C.ar    1  UNL1        0.1453
      5 C         140.3188  138.3137  158.2068 C.ar    1  UNL1        0.0561
      6 C         139.6740  138.5389  159.5422 C.ar    1  UNL1        0.0860
      7 N         140.4988  138.4761  160.7935 N.ar    1  UNL1       -0.2729
      8 C         139.8538  138.7013  162.1290 C.ar    1  UNL1        0.0671
      9 C         139.2824  140.0459  162.4687 C.ar    1  UNL1        0.0207
     10 C         138.6375  140.2711  163.8041 C.ar    1  UNL1        0.0384
     11 C         138.5640  139.1516  164.7999 C.ar    1  UNL1        0.1387
     12 C         139.1354  137.8070  164.4601 C.ar    1  UNL1        0.0384
     13 C         139.7803  137.5818  163.1247 C.ar    1  UNL1        0.0207
     14 O         137.9191  139.3768  166.1353 O.3     1  UNL1       -0.4740
     15 C         138.7484  139.3388  167.3846 C.3     1  UNL1        0.2226
     16 C         140.0339  140.1084  167.4551 C.3     1  UNL1        0.1202
     17 N         140.6274  140.4567  168.7880 N.3     1  UNL1       -0.2653
     18 C         141.8856  139.7821  169.2482 C.3     1  UNL1        0.1047
     19 C         142.4790  140.1305  170.5810 C.3     1  UNL1        0.1595
     20 O         141.8143  141.1535  171.4537 O.3     1  UNL1       -0.3508
     21 C         140.5560  141.8281  170.9935 C.3     1  UNL1        0.1595
     22 C         139.9626  141.4798  169.6607 C.3     1  UNL1        0.1047
     23 O         142.4334  137.8007  156.7872 O.3     1  UNL1       -0.4704
     24 C         141.8767  136.7706  155.8496 C.3     1  UNL1        0.2320
     25 C         142.1683  135.3165  156.0740 C.ar    1  UNL1        0.0212
     26 C         141.4217  134.2731  155.2969 C.ar    1  UNL1       -0.0007
     27 C         141.7134  132.8189  155.5214 C.ar    1  UNL1       -0.0002
     28 C         142.7516  132.4082  156.5230 C.ar    1  UNL1       -0.0000
     29 C         143.4982  133.4515  157.3002 C.ar    1  UNL1       -0.0002
     30 C         143.2066  134.9057  157.0757 C.ar    1  UNL1       -0.0007
@<TRIPOS>BOND
     1     1     2    2
     2     2     3   ar
     3     3     4   ar
     4     4    23    1
     5    23    24    1
     6    24    25    1
     7    25    26   ar
     8    26    27   ar
     9    27    28   ar
    10    28    29   ar
    11    29    30   ar
    12     4     5   ar
    13     5     6   ar
    14     6     7   ar
    15     7     8    1
    16     8     9   ar
    17     9    10   ar
    18    10    11   ar
    19    11    14    1
    20    14    15    1
    21    15    16    1
    22    16    17    1
    23    17    18    1
    24    18    19    1
    25    19    20    1
    26    20    21    1
    27    21    22    1
    28    11    12   ar
    29    12    13   ar
    30     7     2   ar
    31    13     8   ar
    32    30    25   ar
    33    22    17    1
@<TRIPOS>MOLECULE
*****
 30 33 0 0 0
SMALL
GASTEIGER

@<TRIPOS>ATOM
      1 O         137.9012  143.9800  163.3066 O.2     1  UNL1       -0.2665
      2 C         139.2417  143.5317  163.8089 C.ar    1  UNL1        0.2679
      3 C         139.4202  143.1767  165.2553 C.ar    1  UNL1        0.0980
      4 C         140.7606  142.7284  165.7576 C.ar    1  UNL1        0.1453
      5 C         141.9225  142.6352  164.8136 C.ar    1  UNL1        0.0561
      6 C         141.7440  142.9902  163.3672 C.ar    1  UNL1        0.0860
      7 N         140.4035  143.4385  162.8649 N.ar    1  UNL1       -0.2729
      8 C         140.2250  143.7935  161.4184 C.ar    1  UNL1        0.0671
      9 C         140.4929  145.1935  160.9512 C.ar    1  UNL1        0.0207
     10 C         140.3144  145.5486  159.5048 C.ar    1  UNL1        0.0384
     11 C         139.8681  144.5036  158.5256 C.ar    1  UNL1        0.1387
     12 C         139.6002  143.1036  158.9928 C.ar    1  UNL1        0.0384
     13 C         139.7787  142.7486  160.4392 C.ar    1  UNL1        0.0207
     14 O         139.6896  144.8587  157.0792 O.3     1  UNL1       -0.4740
     15 C         139.8978  146.2723  156.6227 C.3     1  UNL1        0.2226
     16 C         139.0842  146.8218  155.4887 C.3     1  UNL1        0.1202
     17 N         139.1313  148.2874  155.1730 N.3     1  UNL1       -0.2653
     18 C         138.4881  149.2754  156.1004 C.3     1  UNL1        0.1047
     19 C         138.5352  150.7411  155.7847 C.3     1  UNL1        0.1595
     20 O         139.2256  151.2187  154.5417 O.3     1  UNL1       -0.3508
     21 C         139.8689  150.2307  153.6142 C.3     1  UNL1        0.1595
     22 C         139.8218  148.7650  153.9299 C.3     1  UNL1        0.1047
     23 O         140.9391  142.3734  167.2041 O.3     1  UNL1       -0.4704
     24 C         141.0081  140.9339  167.6200 C.3     1  UNL1        0.2320
     25 C         140.2704  139.8902  166.8349 C.ar    1  UNL1        0.0212
     26 C         138.8330  139.5947  167.1454 C.ar    1  UNL1       -0.0007
     27 C         138.0953  138.5509  166.3602 C.ar    1  UNL1       -0.0002
     28 C         138.7951  137.8027  165.2646 C.ar    1  UNL1       -0.0000
     29 C         140.2325  138.0982  164.9540 C.ar    1  UNL1       -0.0002
     30 C         140.9702  139.1419  165.7391 C.ar    1  UNL1       -0.0007
@<TRIPOS>BOND
     1     1     2    2
     2     2     3   ar
     3     3     4   ar
     4     4    23    1
     5    23    24    1
     6    24    25    1
     7    25    26   ar
     8    26    27   ar
     9    27    28   ar
    10    28    29   ar
    11    29    30   ar
    12     4     5   ar
    13     5     6   ar
    14     6     7   ar
    15     7     8    1
    16     8     9   ar
    17     9    10   ar
    18    10    11   ar
    19    11    14    1
    20    14    15    1
    21    15    16    1
    22    16    17    1
    23    17    18    1
    24    18    19    1
    25    19    20    1
    26    20    21    1
    27    21    22    1
    28    11    12   ar
    29    12    13   ar
    30     7     2   ar
    31    13     8   ar
    32    30    25   ar
    33    22    17    1
@<TRIPOS>MOLECULE
*****
 30 33 0 0 0
SMALL
GASTEIGER

@<TRIPOS>ATOM
      1 O         138.2556  139.2659  159.4566 O.2     1  UNL1       -0.2665
      2 C         139.6840  138.8240  159.3363 C.ar    1  UNL1        0.2679
      3 C         140.2884  138.6005  157.9818 C.ar    1  UNL1        0.0980
      4 C         141.7168  138.1587  157.8615 C.ar    1  UNL1        0.1453
      5 C         142.5408  137.9404  159.0957 C.ar    1  UNL1        0.0561
      6 C         141.9364  138.1639  160.4502 C.ar    1  UNL1        0.0860
      7 N         140.5080  138.6057  160.5705 N.ar    1  UNL1       -0.2729
      8 C         139.9037  138.8292  161.9251 C.ar    1  UNL1        0.0671
      9 C         139.4807  137.6572  162.7603 C.ar    1  UNL1        0.0207
     10 C         138.8763  137.8806  164.1148 C.ar    1  UNL1        0.0384
     11 C         138.6950  139.2761  164.6343 C.ar    1  UNL1        0.1387
     12 C         139.1180  140.4481  163.7991 C.ar    1  UNL1        0.0384
     13 C         139.7223  140.2246  162.4445 C.ar    1  UNL1        0.0207
     14 O         138.0906  139.4995  165.9888 O.3     1  UNL1       -0.4740
     15 C         138.9625  139.4929  167.2094 C.3     1  UNL1        0.2226
     16 C         139.9285  140.6155  167.4472 C.3     1  UNL1        0.1202
     17 N         140.1782  141.1073  168.8421 N.3     1  UNL1       -0.2653
     18 C         140.1640  142.5789  169.1323 C.3     1  UNL1        0.1047
     19 C         140.4137  143.0707  170.5272 C.3     1  UNL1        0.1595
     20 O         140.6776  142.0909  171.6319 O.3     1  UNL1       -0.3508
     21 C         140.6918  140.6193  171.3417 C.3     1  UNL1        0.1595
     22 C         140.4421  140.1275  169.9468 C.3     1  UNL1        0.1047
     23 O         142.3211  137.9352  156.5069 O.3     1  UNL1       -0.4704
     24 C         143.3575  136.8679  156.3148 C.3     1  UNL1        0.2320
     25 C         142.9429  135.4301  156.2104 C.ar    1  UNL1        0.0212
     26 C         143.6263  134.3899  157.0477 C.ar    1  UNL1       -0.0007
     27 C         143.2117  132.9520  156.9432 C.ar    1  UNL1       -0.0002
     28 C         142.1139  132.5545  156.0016 C.ar    1  UNL1       -0.0000
     29 C         141.4305  133.5948  155.1644 C.ar    1  UNL1       -0.0002
     30 C         141.8450  135.0326  155.2688 C.ar    1  UNL1       -0.0007
@<TRIPOS>BOND
     1     1     2    2
     2     2     3   ar
     3     3     4   ar
     4     4    23    1
     5    23    24    1
     6    24    25    1
     7    25    26   ar
     8    26    27   ar
     9    27    28   ar
    10    28    29   ar
    11    29    30   ar
    12     4     5   ar
    13     5     6   ar
    14     6     7   ar
    15     7     8    1
    16     8     9   ar
    17     9    10   ar
    18    10    11   ar
    19    11    14    1
    20    14    15    1
    21    15    16    1
    22    16    17    1
    23    17    18    1
    24    18    19    1
    25    19    20    1
    26    20    21    1
    27    21    22    1
    28    11    12   ar
    29    12    13   ar
    30     7     2   ar
    31    13     8   ar
    32    30    25   ar
    33    22    17    1
@<TRIPOS>MOLECULE
*****
 30 33 0 0 0
SMALL
GASTEIGER

@<TRIPOS>ATOM
      1 O         140.7203  137.1817  162.9787 O.2     1  UNL1       -0.2665
      2 C         141.8555  137.9239  163.6195 C.ar    1  UNL1        0.2679
      3 C         142.0198  137.9014  165.1102 C.ar    1  UNL1        0.0980
      4 C         143.1550  138.6436  165.7510 C.ar    1  UNL1        0.1453
      5 C         144.1258  139.4083  164.9009 C.ar    1  UNL1        0.0561
      6 C         143.9615  139.4309  163.4102 C.ar    1  UNL1        0.0860
      7 N         142.8263  138.6887  162.7694 N.ar    1  UNL1       -0.2729
      8 C         142.6620  138.7113  161.2786 C.ar    1  UNL1        0.0671
      9 C         142.1475  139.9458  160.5994 C.ar    1  UNL1        0.0207
     10 C         141.9832  139.9684  159.1086 C.ar    1  UNL1        0.0384
     11 C         142.3334  138.7565  158.2970 C.ar    1  UNL1        0.1387
     12 C         142.8478  137.5220  158.9762 C.ar    1  UNL1        0.0384
     13 C         143.0121  137.4994  160.4670 C.ar    1  UNL1        0.0207
     14 O         142.1691  138.7791  156.8062 O.3     1  UNL1       -0.4740
     15 C         142.9502  137.8260  155.9510 C.3     1  UNL1        0.2226
     16 C         142.2371  136.7633  155.1686 C.3     1  UNL1        0.1202
     17 N         142.2622  135.3399  155.6412 N.3     1  UNL1       -0.2653
     18 C         143.1888  134.9335  156.7485 C.3     1  UNL1        0.1047
     19 C         143.2139  133.5102  157.2211 C.3     1  UNL1        0.1595
     20 O         142.3124  132.4931  156.5864 O.3     1  UNL1       -0.3508
     21 C         141.3857  132.8995  155.4790 C.3     1  UNL1        0.1595
     22 C         141.3606  134.3229  155.0064 C.3     1  UNL1        0.1047
     23 O         143.3193  138.6210  167.2418 O.3     1  UNL1       -0.4704
     24 C         142.9508  139.8262  168.0553 C.3     1  UNL1        0.2320
     25 C         141.5835  139.9313  168.6630 C.ar    1  UNL1        0.0212
     26 C         141.4275  139.9848  170.1539 C.ar    1  UNL1       -0.0007
     27 C         140.0601  140.0900  170.7616 C.ar    1  UNL1       -0.0002
     28 C         138.8488  140.1417  169.8785 C.ar    1  UNL1       -0.0000
     29 C         139.0048  140.0883  168.3876 C.ar    1  UNL1       -0.0002
     30 C         140.3721  139.9831  167.7798 C.ar    1  UNL1       -0.0007
@<TRIPOS>BOND
     1     1     2    2
     2     2     3   ar
     3     3     4   ar
     4     4    23    1
     5    23    24    1
     6    24    25    1
     7    25    26   ar
     8    26    27   ar
     9    27    28   ar
    10    28    29   ar
    11    29    30   ar
    12     4     5   ar
    13     5     6   ar
    14     6     7   ar
    15     7     8    1
    16     8     9   ar
    17     9    10   ar
    18    10    11   ar
    19    11    14    1
    20    14    15    1
    21    15    16    1
    22    16    17    1
    23    17    18    1
    24    18    19    1
    25    19    20    1
    26    20    21    1
    27    21    22    1
    28    11    12   ar
    29    12    13   ar
    30     7     2   ar
    31    13     8   ar
    32    30    25   ar
    33    22    17    1
@<TRIPOS>MOLECULE
*****
 30 33 0 0 0
SMALL
GASTEIGER

@<TRIPOS>ATOM
      1 O         141.4880  143.4672  169.4398 O.2     1  UNL1       -0.2665
      2 C         140.6492  142.2632  169.1289 C.ar    1  UNL1        0.2679
      3 C         139.7643  141.6723  170.1862 C.ar    1  UNL1        0.0980
      4 C         138.9255  140.4683  169.8753 C.ar    1  UNL1        0.1453
      5 C         138.9715  139.8551  168.5071 C.ar    1  UNL1        0.0561
      6 C         139.8564  140.4460  167.4499 C.ar    1  UNL1        0.0860
      7 N         140.6952  141.6500  167.7608 N.ar    1  UNL1       -0.2729
      8 C         141.5802  142.2409  166.7035 C.ar    1  UNL1        0.0671
      9 C         143.0696  142.2311  166.8806 C.ar    1  UNL1        0.0207
     10 C         143.9545  142.8219  165.8233 C.ar    1  UNL1        0.0384
     11 C         143.3500  143.4226  164.5889 C.ar    1  UNL1        0.1387
     12 C         141.8605  143.4324  164.4118 C.ar    1  UNL1        0.0384
     13 C         140.9756  142.8415  165.4691 C.ar    1  UNL1        0.0207
     14 O         144.2349  144.0134  163.5317 O.3     1  UNL1       -0.4740
     15 C         144.4340  143.2926  162.2314 C.3     1  UNL1        0.2226
     16 C         145.1145  141.9560  162.2114 C.3     1  UNL1        0.1202
     17 N         144.3013  140.6989  162.3025 N.3     1  UNL1       -0.2653
     18 C         144.1713  139.9832  163.6143 C.3     1  UNL1        0.1047
     19 C         143.3580  138.7261  163.7054 C.3     1  UNL1        0.1595
     20 O         142.6749  138.1846  162.4848 O.3     1  UNL1       -0.3508
     21 C         142.8049  138.9003  161.1729 C.3     1  UNL1        0.1595
     22 C         143.6181  140.1574  161.0818 C.3     1  UNL1        0.1047
     23 O         138.0406  139.8774  170.9326 O.3     1  UNL1       -0.4704
     24 C         137.1041  138.7578  170.5871 C.3     1  UNL1        0.2320
     25 C         136.4253  137.9840  171.6782 C.ar    1  UNL1        0.0212
     26 C         135.1042  138.4478  172.2163 C.ar    1  UNL1       -0.0007
     27 C         134.4254  137.6740  173.3075 C.ar    1  UNL1       -0.0002
     28 C         135.0678  136.4365  173.8605 C.ar    1  UNL1       -0.0000
     29 C         136.3889  135.9727  173.3224 C.ar    1  UNL1       -0.0002
     30 C         137.0677  136.7464  172.2313 C.ar    1  UNL1       -0.0007
@<TRIPOS>BOND
     1     1     2    2
     2     2     3   ar
     3     3     4   ar
     4     4    23    1
     5    23    24    1
     6    24    25    1
     7    25    26   ar
     8    26    27   ar
     9    27    28   ar
    10    28    29   ar
    11    29    30   ar
    12     4     5   ar
    13     5     6   ar
    14     6     7   ar
    15     7     8    1
    16     8     9   ar
    17     9    10   ar
    18    10    11   ar
    19    11    14    1
    20    14    15    1
    21    15    16    1
    22    16    17    1
    23    17    18    1
    24    18    19    1
    25    19    20    1
    26    20    21    1
    27    21    22    1
    28    11    12   ar
    29    12    13   ar
    30     7     2   ar
    31    13     8   ar
    32    30    25   ar
    33    22    17    1
@<TRIPOS>MOLECULE
*****
 30 33 0 0 0
SMALL
GASTEIGER

@<TRIPOS>ATOM
      1 O         139.5061  145.8707  160.9653 O.2     1  UNL1       -0.2665
      2 C         140.4396  145.3196  159.9286 C.ar    1  UNL1        0.2679
      3 C         140.3330  145.7774  158.5041 C.ar    1  UNL1        0.0980
      4 C         141.2665  145.2262  157.4674 C.ar    1  UNL1        0.1453
      5 C         142.3066  144.2174  157.8551 C.ar    1  UNL1        0.0561
      6 C         142.4132  143.7597  159.2795 C.ar    1  UNL1        0.0860
      7 N         141.4797  144.3108  160.3163 N.ar    1  UNL1       -0.2729
      8 C         141.5863  143.8530  161.7408 C.ar    1  UNL1        0.0671
      9 C         140.8948  142.5959  162.1783 C.ar    1  UNL1        0.0207
     10 C         141.0014  142.1381  163.6027 C.ar    1  UNL1        0.0384
     11 C         141.7996  142.9374  164.5897 C.ar    1  UNL1        0.1387
     12 C         142.4912  144.1945  164.1522 C.ar    1  UNL1        0.0384
     13 C         142.3845  144.6523  162.7277 C.ar    1  UNL1        0.0207
     14 O         141.9062  142.4797  166.0141 O.3     1  UNL1       -0.4740
     15 C         142.6931  141.2473  166.3490 C.3     1  UNL1        0.2226
     16 C         142.0257  140.0964  167.0416 C.3     1  UNL1        0.1202
     17 N         141.3681  140.3022  168.3740 N.3     1  UNL1       -0.2653
     18 C         142.2064  140.5292  169.5970 C.3     1  UNL1        0.1047
     19 C         141.5488  140.7350  170.9294 C.3     1  UNL1        0.1595
     20 O         140.0530  140.7137  171.0388 O.3     1  UNL1       -0.3508
     21 C         139.2146  140.4867  169.8158 C.3     1  UNL1        0.1595
     22 C         139.8722  140.2809  168.4834 C.3     1  UNL1        0.1047
     23 O         141.1598  145.6840  156.0429 O.3     1  UNL1       -0.4704
     24 C         139.8342  146.1196  155.4924 C.3     1  UNL1        0.2320
     25 C         139.5305  147.5802  155.3359 C.ar    1  UNL1        0.0212
     26 C         138.7516  148.3019  156.3954 C.ar    1  UNL1       -0.0007
     27 C         138.4479  149.7626  156.2389 C.ar    1  UNL1       -0.0002
     28 C         138.9230  150.5013  155.0230 C.ar    1  UNL1       -0.0000
     29 C         139.7019  149.7796  153.9636 C.ar    1  UNL1       -0.0002
     30 C         140.0057  148.3191  154.1200 C.ar    1  UNL1       -0.0007
@<TRIPOS>BOND
     1     1     2    2
     2     2     3   ar
     3     3     4   ar
     4     4    23    1
     5    23    24    1
     6    24    25    1
     7    25    26   ar
     8    26    27   ar
     9    27    28   ar
    10    28    29   ar
    11    29    30   ar
    12     4     5   ar
    13     5     6   ar
    14     6     7   ar
    15     7     8    1
    16     8     9   ar
    17     9    10   ar
    18    10    11   ar
    19    11    14    1
    20    14    15    1
    21    15    16    1
    22    16    17    1
    23    17    18    1
    24    18    19    1
    25    19    20    1
    26    20    21    1
    27    21    22    1
    28    11    12   ar
    29    12    13   ar
    30     7     2   ar
    31    13     8   ar
    32    30    25   ar
    33    22    17    1
