@<TRIPOS>MOLECULE
*****
 32 35 0 0 0
SMALL
GASTEIGER

@<TRIPOS>ATOM
      1 N         139.2665  140.5734  166.2446 N.3     1  UNL1       -0.2690
      2 C         138.3267  140.0162  165.2167 C.3     1  UNL1        0.0724
      3 C         137.8200  140.8930  164.1102 C.3     1  UNL1        0.0188
      4 C         138.2530  142.3270  164.0315 C.3     1  UNL1        0.0188
      5 C         139.1927  142.8842  165.0593 C.3     1  UNL1        0.0188
      6 C         139.6995  142.0074  166.1658 C.3     1  UNL1        0.0724
      7 C         139.7732  139.6966  167.3511 C.3     1  UNL1        0.0992
      8 C         142.0062  140.3309  168.5180 C.ar    1  UNL1        0.0113
      9 C         142.7394  140.9360  169.6784 C.ar    1  UNL1        0.0009
     10 C         141.9729  141.5117  170.8321 C.ar    1  UNL1        0.0000
     11 C         140.4732  141.4824  170.8255 C.ar    1  UNL1       -0.0003
     12 C         139.7400  140.8774  169.6652 C.ar    1  UNL1       -0.0029
     13 C         140.5065  140.3016  168.5114 C.ar    1  UNL1       -0.0050
     14 O         142.8712  140.5157  166.0752 O.co2   1  UNL1       -0.5446
     15 C         142.7726  139.7552  167.3644 C.2     1  UNL1        0.0726
     16 O         143.4406  138.4190  167.4998 O.co2   1  UNL1       -0.5446
     17 C         137.7463  143.2038  162.9249 C.3     1  UNL1        0.0721
     18 N         138.7136  143.8548  161.9812 N.3     1  UNL1       -0.2724
     19 C         139.1911  145.2525  162.2426 C.3     1  UNL1        0.0758
     20 C         140.1583  145.9034  161.2989 C.3     1  UNL1        0.0609
     21 C         140.6480  145.1567  160.0937 C.3     1  UNL1        0.1687
     22 C         140.1705  143.7590  159.8322 C.3     1  UNL1        0.0609
     23 C         139.2032  143.1081  160.7759 C.3     1  UNL1        0.0758
     24 O         141.6153  145.8077  159.1499 O.3     1  UNL1       -0.4790
     25 C         141.3616  145.7703  157.6720 C.ar    1  UNL1        0.1393
     26 C         142.3757  145.1575  156.7522 C.ar    1  UNL1        0.0378
     27 C         142.1219  145.1201  155.2742 C.ar    1  UNL1        0.0154
     28 C         140.8541  145.6955  154.7161 C.ar    1  UNL1        0.0684
     29 CL        140.6004  145.6580  153.2383 Cl      1  UNL1       -0.0814
     30 C         139.8400  146.3083  155.6359 C.ar    1  UNL1        0.0712
     31 CL        138.5722  146.8837  155.0779 Cl      1  UNL1       -0.0813
     32 C         140.0937  146.3457  157.1138 C.ar    1  UNL1        0.0491
@<TRIPOS>UNITY_ATOM_ATTR
14 1
charge -1
@<TRIPOS>BOND
     1    14    15   ar
     2    15    16   ar
     3    15     8    1
     4     8     9   ar
     5     9    10   ar
     6    10    11   ar
     7    11    12   ar
     8    12    13   ar
     9    13     7    1
    10     7     1    1
    11     1     2    1
    12     2     3    1
    13     3     4    1
    14     4    17    1
    15    17    18    1
    16    18    19    1
    17    19    20    1
    18    20    21    1
    19    21    24    1
    20    24    25    1
    21    25    26   ar
    22    26    27   ar
    23    27    28   ar
    24    28    29    1
    25    28    30   ar
    26    30    31    1
    27    30    32   ar
    28    21    22    1
    29    22    23    1
    30     4     5    1
    31     5     6    1
    32    13     8   ar
    33     6     1    1
    34    23    18    1
    35    32    25   ar
@<TRIPOS>MOLECULE
*****
 32 35 0 0 0
SMALL
GASTEIGER

@<TRIPOS>ATOM
      1 N         139.3247  140.1409  167.3437 N.3     1  UNL1       -0.2690
      2 C         138.4702  139.0224  166.8250 C.3     1  UNL1        0.0724
      3 C         138.0537  139.0029  165.3842 C.3     1  UNL1        0.0188
      4 C         138.4915  140.1020  164.4620 C.3     1  UNL1        0.0188
      5 C         139.3458  141.2204  164.9806 C.3     1  UNL1        0.0188
      6 C         139.7624  141.2399  166.4215 C.3     1  UNL1        0.0724
      7 C         139.7413  140.1604  168.7845 C.3     1  UNL1        0.0992
      8 C         142.2231  140.7291  169.3014 C.ar    1  UNL1        0.0113
      9 C         143.2620  141.7050  169.7686 C.ar    1  UNL1        0.0009
     10 C         142.8581  143.0879  170.1862 C.ar    1  UNL1        0.0000
     11 C         141.4152  143.4950  170.1366 C.ar    1  UNL1       -0.0003
     12 C         140.3763  142.5192  169.6694 C.ar    1  UNL1       -0.0029
     13 C         140.7802  141.1362  169.2517 C.ar    1  UNL1       -0.0050
     14 O         142.9241  138.3058  169.9227 O.co2   1  UNL1       -0.5446
     15 C         142.6270  139.3462  168.8838 C.2     1  UNL1        0.0726
     16 O         142.7338  139.0037  167.4273 O.co2   1  UNL1       -0.5446
     17 C         138.0749  140.0825  163.0211 C.3     1  UNL1        0.0721
     18 N         139.0900  139.8113  161.9505 N.3     1  UNL1       -0.2724
     19 C         139.2257  140.7520  160.7900 C.3     1  UNL1        0.0758
     20 C         140.2407  140.4807  159.7195 C.3     1  UNL1        0.0609
     21 C         141.1200  139.2688  159.8094 C.3     1  UNL1        0.1687
     22 C         140.9843  138.3282  160.9699 C.3     1  UNL1        0.0609
     23 C         139.9693  138.5994  162.0404 C.3     1  UNL1        0.0758
     24 O         142.1351  138.9976  158.7388 O.3     1  UNL1       -0.4790
     25 C         141.8875  137.9188  157.7266 C.ar    1  UNL1        0.1393
     26 C         140.6230  137.9231  156.9198 C.ar    1  UNL1        0.0378
     27 C         140.3754  136.8442  155.9075 C.ar    1  UNL1        0.0154
     28 C         141.3924  135.7609  155.7020 C.ar    1  UNL1        0.0684
     29 CL        141.1448  134.6821  154.6897 Cl      1  UNL1       -0.0814
     30 C         142.6570  135.7566  156.5087 C.ar    1  UNL1        0.0712
     31 CL        143.6740  134.6734  156.3032 Cl      1  UNL1       -0.0813
     32 C         142.9046  136.8355  157.5210 C.ar    1  UNL1        0.0491
@<TRIPOS>UNITY_ATOM_ATTR
14 1
charge -1
@<TRIPOS>BOND
     1    14    15   ar
     2    15    16   ar
     3    15     8    1
     4     8     9   ar
     5     9    10   ar
     6    10    11   ar
     7    11    12   ar
     8    12    13   ar
     9    13     7    1
    10     7     1    1
    11     1     2    1
    12     2     3    1
    13     3     4    1
    14     4    17    1
    15    17    18    1
    16    18    19    1
    17    19    20    1
    18    20    21    1
    19    21    24    1
    20    24    25    1
    21    25    26   ar
    22    26    27   ar
    23    27    28   ar
    24    28    29    1
    25    28    30   ar
    26    30    31    1
    27    30    32   ar
    28    21    22    1
    29    22    23    1
    30     4     5    1
    31     5     6    1
    32    13     8   ar
    33     6     1    1
    34    23    18    1
    35    32    25   ar
@<TRIPOS>MOLECULE
*****
 32 35 0 0 0
SMALL
GASTEIGER

@<TRIPOS>ATOM
      1 N         140.9812  143.2147  165.9496 N.3     1  UNL1       -0.2690
      2 C         141.8509  143.3206  164.7320 C.3     1  UNL1        0.0724
      3 C         141.3373  144.0068  163.5010 C.3     1  UNL1        0.0188
      4 C         139.9541  144.5871  163.4876 C.3     1  UNL1        0.0188
      5 C         139.0845  144.4811  164.7052 C.3     1  UNL1        0.0188
      6 C         139.5981  143.7949  165.9362 C.3     1  UNL1        0.0724
      7 C         141.4948  142.5285  167.1806 C.3     1  UNL1        0.0992
      8 C         140.2605  142.2199  169.4458 C.ar    1  UNL1        0.0113
      9 C         139.3206  141.4408  170.3175 C.ar    1  UNL1        0.0009
     10 C         138.6754  140.1913  169.7957 C.ar    1  UNL1        0.0000
     11 C         138.9700  139.7208  168.4022 C.ar    1  UNL1       -0.0003
     12 C         139.9098  140.4998  167.5305 C.ar    1  UNL1       -0.0029
     13 C         140.5550  141.7494  168.0523 C.ar    1  UNL1       -0.0050
     14 O         140.1161  144.7421  170.0525 O.co2   1  UNL1       -0.5446
     15 C         140.9057  143.4695  169.9676 C.2     1  UNL1        0.0726
     16 O         142.3404  143.4465  170.4046 O.co2   1  UNL1       -0.5446
     17 C         139.4405  145.2733  162.2566 C.3     1  UNL1        0.0721
     18 N         139.5211  144.5857  160.9258 N.3     1  UNL1       -0.2724
     19 C         140.2161  145.2544  159.7770 C.3     1  UNL1        0.0758
     20 C         140.2966  144.5668  158.4464 C.3     1  UNL1        0.0609
     21 C         139.6822  143.2106  158.2645 C.3     1  UNL1        0.1687
     22 C         138.9872  142.5419  159.4133 C.3     1  UNL1        0.0609
     23 C         138.9066  143.2295  160.7440 C.3     1  UNL1        0.0758
     24 O         139.7628  142.5230  156.9337 O.3     1  UNL1       -0.4790
     25 C         138.5059  142.1402  156.2101 C.ar    1  UNL1        0.1393
     26 C         137.4340  143.1630  155.9760 C.ar    1  UNL1        0.0378
     27 C         136.1771  142.7800  155.2523 C.ar    1  UNL1        0.0154
     28 C         135.9922  141.3743  154.7627 C.ar    1  UNL1        0.0684
     29 CL        134.7354  140.9915  154.0390 Cl      1  UNL1       -0.0814
     30 C         137.0642  140.3515  154.9967 C.ar    1  UNL1        0.0712
     31 CL        136.8793  138.9458  154.5071 Cl      1  UNL1       -0.0813
     32 C         138.3210  140.7344  155.7204 C.ar    1  UNL1        0.0491
@<TRIPOS>UNITY_ATOM_ATTR
14 1
charge -1
@<TRIPOS>BOND
     1    14    15   ar
     2    15    16   ar
     3    15     8    1
     4     8     9   ar
     5     9    10   ar
     6    10    11   ar
     7    11    12   ar
     8    12    13   ar
     9    13     7    1
    10     7     1    1
    11     1     2    1
    12     2     3    1
    13     3     4    1
    14     4    17    1
    15    17    18    1
    16    18    19    1
    17    19    20    1
    18    20    21    1
    19    21    24    1
    20    24    25    1
    21    25    26   ar
    22    26    27   ar
    23    27    28   ar
    24    28    29    1
    25    28    30   ar
    26    30    31    1
    27    30    32   ar
    28    21    22    1
    29    22    23    1
    30     4     5    1
    31     5     6    1
    32    13     8   ar
    33     6     1    1
    34    23    18    1
    35    32    25   ar
@<TRIPOS>MOLECULE
*****
 32 35 0 0 0
SMALL
GASTEIGER

@<TRIPOS>ATOM
      1 N         139.8060  141.0506  166.3113 N.3     1  UNL1       -0.2690
      2 C         139.2733  139.6824  166.6186 C.3     1  UNL1        0.0724
      3 C         139.1763  138.6538  165.5311 C.3     1  UNL1        0.0188
      4 C         139.6119  138.9934  164.1365 C.3     1  UNL1        0.0188
      5 C         140.1446  140.3615  163.8293 C.3     1  UNL1        0.0188
      6 C         140.2416  141.3901  164.9167 C.3     1  UNL1        0.0724
      7 C         139.9030  142.0792  167.3988 C.3     1  UNL1        0.0992
      8 C         141.0621  142.2397  169.7184 C.ar    1  UNL1        0.0113
      9 C         142.3115  142.3450  170.5418 C.ar    1  UNL1        0.0009
     10 C         143.6511  142.3954  169.8689 C.ar    1  UNL1        0.0000
     11 C         143.7414  142.3403  168.3727 C.ar    1  UNL1       -0.0003
     12 C         142.4921  142.2349  167.5493 C.ar    1  UNL1       -0.0029
     13 C         141.1524  142.1846  168.2222 C.ar    1  UNL1       -0.0050
     14 O         138.9059  140.9319  170.3436 O.co2   1  UNL1       -0.5446
     15 C         139.7224  142.1894  170.3913 C.2     1  UNL1        0.0726
     16 O         139.1993  143.3964  171.1119 O.co2   1  UNL1       -0.5446
     17 C         139.5149  137.9647  163.0490 C.3     1  UNL1        0.0721
     18 N         140.4179  138.0490  161.8542 N.3     1  UNL1       -0.2724
     19 C         139.8846  138.5501  160.5449 C.3     1  UNL1        0.0758
     20 C         140.7876  138.6343  159.3502 C.3     1  UNL1        0.0609
     21 C         142.2239  138.2174  159.4648 C.3     1  UNL1        0.1687
     22 C         142.7572  137.7163  160.7741 C.3     1  UNL1        0.0609
     23 C         141.8542  137.6321  161.9688 C.3     1  UNL1        0.0758
     24 O         143.1269  138.3017  158.2699 O.3     1  UNL1       -0.4790
     25 C         142.8338  137.4812  157.0489 C.ar    1  UNL1        0.1393
     26 C         142.0634  138.0804  155.9099 C.ar    1  UNL1        0.0378
     27 C         141.7703  137.2599  154.6888 C.ar    1  UNL1        0.0154
     28 C         142.2475  135.8402  154.6069 C.ar    1  UNL1        0.0684
     29 CL        141.9544  135.0197  153.3859 Cl      1  UNL1       -0.0814
     30 C         143.0179  135.2410  155.7460 C.ar    1  UNL1        0.0712
     31 CL        143.4951  133.8214  155.6640 Cl      1  UNL1       -0.0813
     32 C         143.3110  136.0615  156.9670 C.ar    1  UNL1        0.0491
@<TRIPOS>UNITY_ATOM_ATTR
14 1
charge -1
@<TRIPOS>BOND
     1    14    15   ar
     2    15    16   ar
     3    15     8    1
     4     8     9   ar
     5     9    10   ar
     6    10    11   ar
     7    11    12   ar
     8    12    13   ar
     9    13     7    1
    10     7     1    1
    11     1     2    1
    12     2     3    1
    13     3     4    1
    14     4    17    1
    15    17    18    1
    16    18    19    1
    17    19    20    1
    18    20    21    1
    19    21    24    1
    20    24    25    1
    21    25    26   ar
    22    26    27   ar
    23    27    28   ar
    24    28    29    1
    25    28    30   ar
    26    30    31    1
    27    30    32   ar
    28    21    22    1
    29    22    23    1
    30     4     5    1
    31     5     6    1
    32    13     8   ar
    33     6     1    1
    34    23    18    1
    35    32    25   ar
@<TRIPOS>MOLECULE
*****
 32 35 0 0 0
SMALL
GASTEIGER

@<TRIPOS>ATOM
      1 N         140.5363  137.7804  162.6221 N.3     1  UNL1       -0.2690
      2 C         139.3589  138.0926  161.7465 C.3     1  UNL1        0.0724
      3 C         139.5693  138.4396  160.3025 C.3     1  UNL1        0.0188
      4 C         140.9570  138.4744  159.7340 C.3     1  UNL1        0.0188
      5 C         142.1343  138.1622  160.6095 C.3     1  UNL1        0.0188
      6 C         141.9239  137.8152  162.0536 C.3     1  UNL1        0.0724
      7 C         140.3259  137.4333  164.0661 C.3     1  UNL1        0.0992
      8 C         139.9958  139.2400  165.9038 C.ar    1  UNL1        0.0113
      9 C         140.5644  140.1201  166.9772 C.ar    1  UNL1        0.0009
     10 C         142.0315  140.0737  167.2863 C.ar    1  UNL1        0.0000
     11 C         142.9300  139.1471  166.5220 C.ar    1  UNL1       -0.0003
     12 C         142.3615  138.2670  165.4486 C.ar    1  UNL1       -0.0029
     13 C         140.8944  138.3134  165.1395 C.ar    1  UNL1       -0.0050
     14 O         137.5522  138.5747  166.4834 O.co2   1  UNL1       -0.5446
     15 C         138.5288  139.2864  165.5947 C.2     1  UNL1        0.0726
     16 O         138.0383  140.0446  164.3970 O.co2   1  UNL1       -0.5446
     17 C         141.1674  138.8214  158.2899 C.3     1  UNL1        0.0721
     18 N         141.4465  137.7376  157.2910 N.3     1  UNL1       -0.2724
     19 C         140.3652  137.2827  156.3562 C.3     1  UNL1        0.0758
     20 C         140.6443  136.1990  155.3574 C.3     1  UNL1        0.0609
     21 C         142.0046  135.5701  155.2935 C.3     1  UNL1        0.1687
     22 C         143.0858  136.0250  156.2284 C.3     1  UNL1        0.0609
     23 C         142.8068  137.1087  157.2271 C.3     1  UNL1        0.0758
     24 O         142.2837  134.4863  154.2947 O.3     1  UNL1       -0.4790
     25 C         142.3119  133.0520  154.7326 C.ar    1  UNL1        0.1393
     26 C         143.5693  132.4670  155.3044 C.ar    1  UNL1        0.0378
     27 C         143.5975  131.0326  155.7423 C.ar    1  UNL1        0.0154
     28 C         142.3685  130.1832  155.6084 C.ar    1  UNL1        0.0684
     29 CL        142.3968  128.7489  156.0463 Cl      1  UNL1       -0.0814
     30 C         141.1112  130.7682  155.0366 C.ar    1  UNL1        0.0712
     31 CL        139.8821  129.9188  154.9027 Cl      1  UNL1       -0.0813
     32 C         141.0829  132.2025  154.5987 C.ar    1  UNL1        0.0491
@<TRIPOS>UNITY_ATOM_ATTR
14 1
charge -1
@<TRIPOS>BOND
     1    14    15   ar
     2    15    16   ar
     3    15     8    1
     4     8     9   ar
     5     9    10   ar
     6    10    11   ar
     7    11    12   ar
     8    12    13   ar
     9    13     7    1
    10     7     1    1
    11     1     2    1
    12     2     3    1
    13     3     4    1
    14     4    17    1
    15    17    18    1
    16    18    19    1
    17    19    20    1
    18    20    21    1
    19    21    24    1
    20    24    25    1
    21    25    26   ar
    22    26    27   ar
    23    27    28   ar
    24    28    29    1
    25    28    30   ar
    26    30    31    1
    27    30    32   ar
    28    21    22    1
    29    22    23    1
    30     4     5    1
    31     5     6    1
    32    13     8   ar
    33     6     1    1
    34    23    18    1
    35    32    25   ar
@<TRIPOS>MOLECULE
*****
 32 35 0 0 0
SMALL
GASTEIGER

@<TRIPOS>ATOM
      1 N         140.5332  138.2172  163.4268 N.3     1  UNL1       -0.2690
      2 C         141.5695  139.1115  162.8131 C.3     1  UNL1        0.0724
      3 C         141.4793  139.4776  161.3612 C.3     1  UNL1        0.0188
      4 C         140.3530  138.9494  160.5231 C.3     1  UNL1        0.0188
      5 C         139.3169  138.0551  161.1368 C.3     1  UNL1        0.0188
      6 C         139.4070  137.6891  162.5887 C.3     1  UNL1        0.0724
      7 C         140.6233  137.8511  164.8786 C.3     1  UNL1        0.0992
      8 C         139.7739  139.7630  166.4191 C.ar    1  UNL1        0.0113
      9 C         140.0468  140.8234  167.4445 C.ar    1  UNL1        0.0009
     10 C         141.4419  141.0321  167.9546 C.ar    1  UNL1        0.0000
     11 C         142.5641  140.1805  167.4394 C.ar    1  UNL1       -0.0003
     12 C         142.2913  139.1202  166.4141 C.ar    1  UNL1       -0.0029
     13 C         140.8962  138.9115  165.9039 C.ar    1  UNL1       -0.0050
     14 O         137.9188  140.2651  164.6708 O.co2   1  UNL1       -0.5446
     15 C         138.3789  139.5543  165.9091 C.2     1  UNL1        0.0726
     16 O         137.4438  138.6347  166.6371 O.co2   1  UNL1       -0.5446
     17 C         140.2629  139.3155  159.0713 C.3     1  UNL1        0.0721
     18 N         140.8231  138.3933  158.0291 N.3     1  UNL1       -0.2724
     19 C         139.9048  137.7152  157.0561 C.3     1  UNL1        0.0758
     20 C         140.4650  136.7931  156.0140 C.3     1  UNL1        0.0609
     21 C         141.9434  136.5492  155.9450 C.3     1  UNL1        0.1687
     22 C         142.8617  137.2274  156.9180 C.3     1  UNL1        0.0609
     23 C         142.3015  138.1495  157.9601 C.3     1  UNL1        0.0758
     24 O         142.5036  135.6271  154.9028 O.3     1  UNL1       -0.4790
     25 C         142.5531  134.1497  155.1571 C.ar    1  UNL1        0.1393
     26 C         141.3307  133.3092  154.9354 C.ar    1  UNL1        0.0378
     27 C         141.3802  131.8317  155.1897 C.ar    1  UNL1        0.0154
     28 C         142.6520  131.1948  155.6657 C.ar    1  UNL1        0.0684
     29 CL        142.7015  129.7174  155.9201 Cl      1  UNL1       -0.0814
     30 C         143.8745  132.0353  155.8875 C.ar    1  UNL1        0.0712
     31 CL        145.1463  131.3985  156.3635 Cl      1  UNL1       -0.0813
     32 C         143.8250  133.5128  155.6332 C.ar    1  UNL1        0.0491
@<TRIPOS>UNITY_ATOM_ATTR
14 1
charge -1
@<TRIPOS>BOND
     1    14    15   ar
     2    15    16   ar
     3    15     8    1
     4     8     9   ar
     5     9    10   ar
     6    10    11   ar
     7    11    12   ar
     8    12    13   ar
     9    13     7    1
    10     7     1    1
    11     1     2    1
    12     2     3    1
    13     3     4    1
    14     4    17    1
    15    17    18    1
    16    18    19    1
    17    19    20    1
    18    20    21    1
    19    21    24    1
    20    24    25    1
    21    25    26   ar
    22    26    27   ar
    23    27    28   ar
    24    28    29    1
    25    28    30   ar
    26    30    31    1
    27    30    32   ar
    28    21    22    1
    29    22    23    1
    30     4     5    1
    31     5     6    1
    32    13     8   ar
    33     6     1    1
    34    23    18    1
    35    32    25   ar
@<TRIPOS>MOLECULE
*****
 32 35 0 0 0
SMALL
GASTEIGER

@<TRIPOS>ATOM
      1 N         140.7584  138.3751  163.5599 N.3     1  UNL1       -0.2690
      2 C         141.6729  139.3342  162.8571 C.3     1  UNL1        0.0724
      3 C         141.4599  139.6466  161.4055 C.3     1  UNL1        0.0188
      4 C         140.3324  138.9999  160.6568 C.3     1  UNL1        0.0188
      5 C         139.4179  138.0408  161.3596 C.3     1  UNL1        0.0188
      6 C         139.6310  137.7284  162.8112 C.3     1  UNL1        0.0724
      7 C         140.9715  138.0627  165.0115 C.3     1  UNL1        0.0992
      8 C         142.4595  139.4886  166.5934 C.ar    1  UNL1        0.0113
      9 C         142.6032  140.6030  167.5872 C.ar    1  UNL1        0.0009
     10 C         141.4028  141.4057  167.9927 C.ar    1  UNL1        0.0000
     11 C         140.0585  141.0941  167.4046 C.ar    1  UNL1       -0.0003
     12 C         139.9148  139.9798  166.4108 C.ar    1  UNL1       -0.0029
     13 C         141.1152  139.1770  166.0052 C.ar    1  UNL1       -0.0050
     14 O         144.3528  138.9765  164.8895 O.co2   1  UNL1       -0.5446
     15 C         143.6599  138.6859  166.1878 C.2     1  UNL1        0.0726
     16 O         144.1675  137.5925  167.0805 O.co2   1  UNL1       -0.5446
     17 C         140.1193  139.3123  159.2052 C.3     1  UNL1        0.0721
     18 N         140.6930  138.4112  158.1521 N.3     1  UNL1       -0.2724
     19 C         139.7974  137.8123  157.1084 C.3     1  UNL1        0.0758
     20 C         140.3711  136.9112  156.0554 C.3     1  UNL1        0.0609
     21 C         141.8403  136.6091  156.0459 C.3     1  UNL1        0.1687
     22 C         142.7359  137.2080  157.0896 C.3     1  UNL1        0.0609
     23 C         142.1622  138.1090  158.1426 C.3     1  UNL1        0.0758
     24 O         142.4140  135.7080  154.9928 O.3     1  UNL1       -0.4790
     25 C         142.5335  134.2351  155.2499 C.ar    1  UNL1        0.1393
     26 C         141.3621  133.3324  154.9989 C.ar    1  UNL1        0.0378
     27 C         141.4817  131.8594  155.2561 C.ar    1  UNL1        0.0154
     28 C         142.7726  131.2891  155.7642 C.ar    1  UNL1        0.0684
     29 CL        142.8922  129.8162  156.0213 Cl      1  UNL1       -0.0814
     30 C         143.9440  132.1918  156.0152 C.ar    1  UNL1        0.0712
     31 CL        145.2350  131.6216  156.5233 Cl      1  UNL1       -0.0813
     32 C         143.8245  133.6647  155.7581 C.ar    1  UNL1        0.0491
@<TRIPOS>UNITY_ATOM_ATTR
14 1
charge -1
@<TRIPOS>BOND
     1    14    15   ar
     2    15    16   ar
     3    15     8    1
     4     8     9   ar
     5     9    10   ar
     6    10    11   ar
     7    11    12   ar
     8    12    13   ar
     9    13     7    1
    10     7     1    1
    11     1     2    1
    12     2     3    1
    13     3     4    1
    14     4    17    1
    15    17    18    1
    16    18    19    1
    17    19    20    1
    18    20    21    1
    19    21    24    1
    20    24    25    1
    21    25    26   ar
    22    26    27   ar
    23    27    28   ar
    24    28    29    1
    25    28    30   ar
    26    30    31    1
    27    30    32   ar
    28    21    22    1
    29    22    23    1
    30     4     5    1
    31     5     6    1
    32    13     8   ar
    33     6     1    1
    34    23    18    1
    35    32    25   ar
@<TRIPOS>MOLECULE
*****
 32 35 0 0 0
SMALL
GASTEIGER

@<TRIPOS>ATOM
      1 N         142.3234  136.8474  156.7977 N.3     1  UNL1       -0.2690
      2 C         142.8824  137.7555  157.8527 C.3     1  UNL1        0.0724
      3 C         141.9774  138.7029  158.5831 C.3     1  UNL1        0.0188
      4 C         140.5135  138.7422  158.2584 C.3     1  UNL1        0.0188
      5 C         139.9545  137.8341  157.2035 C.3     1  UNL1        0.0188
      6 C         140.8595  136.8867  156.4731 C.3     1  UNL1        0.0724
      7 C         143.2284  135.9000  156.0673 C.3     1  UNL1        0.0992
      8 C         143.1117  133.3596  156.5989 C.ar    1  UNL1        0.0113
      9 C         142.6325  131.9807  156.2533 C.ar    1  UNL1        0.0009
     10 C         141.7910  131.7636  155.0308 C.ar    1  UNL1        0.0000
     11 C         141.4286  132.9253  154.1538 C.ar    1  UNL1       -0.0003
     12 C         141.9077  134.3041  154.4992 C.ar    1  UNL1       -0.0029
     13 C         142.7493  134.5212  155.7218 C.ar    1  UNL1       -0.0050
     14 O         143.4888  134.5165  158.8944 O.co2   1  UNL1       -0.5446
     15 C         143.9532  133.5767  157.8214 C.2     1  UNL1        0.0726
     16 O         145.2591  132.8540  157.9711 O.co2   1  UNL1       -0.5446
     17 C         139.6085  139.6896  158.9888 C.3     1  UNL1        0.0721
     18 N         139.3039  139.4669  160.4406 N.3     1  UNL1       -0.2724
     19 C         139.3496  138.0809  161.0125 C.3     1  UNL1        0.0758
     20 C         139.0450  137.8583  162.4642 C.3     1  UNL1        0.0609
     21 C         138.6947  139.0215  163.3441 C.3     1  UNL1        0.1687
     22 C         138.6490  140.4074  162.7722 C.3     1  UNL1        0.0609
     23 C         138.9536  140.6301  161.3205 C.3     1  UNL1        0.0758
     24 O         138.3900  138.7988  164.7959 O.3     1  UNL1       -0.4790
     25 C         139.4030  139.1654  165.8396 C.ar    1  UNL1        0.1393
     26 C         140.8675  139.0753  165.5278 C.ar    1  UNL1        0.0378
     27 C         141.8805  139.4420  166.5716 C.ar    1  UNL1        0.0154
     28 C         141.4290  139.8988  167.9271 C.ar    1  UNL1        0.0684
     29 CL        142.4420  140.2654  168.9708 Cl      1  UNL1       -0.0814
     30 C         139.9645  139.9889  168.2389 C.ar    1  UNL1        0.0712
     31 CL        139.5131  140.4458  169.5944 Cl      1  UNL1       -0.0813
     32 C         138.9516  139.6223  167.1952 C.ar    1  UNL1        0.0491
@<TRIPOS>UNITY_ATOM_ATTR
14 1
charge -1
@<TRIPOS>BOND
     1    14    15   ar
     2    15    16   ar
     3    15     8    1
     4     8     9   ar
     5     9    10   ar
     6    10    11   ar
     7    11    12   ar
     8    12    13   ar
     9    13     7    1
    10     7     1    1
    11     1     2    1
    12     2     3    1
    13     3     4    1
    14     4    17    1
    15    17    18    1
    16    18    19    1
    17    19    20    1
    18    20    21    1
    19    21    24    1
    20    24    25    1
    21    25    26   ar
    22    26    27   ar
    23    27    28   ar
    24    28    29    1
    25    28    30   ar
    26    30    31    1
    27    30    32   ar
    28    21    22    1
    29    22    23    1
    30     4     5    1
    31     5     6    1
    32    13     8   ar
    33     6     1    1
    34    23    18    1
    35    32    25   ar
@<TRIPOS>MOLECULE
*****
 32 35 0 0 0
SMALL
GASTEIGER

@<TRIPOS>ATOM
      1 N         142.3687  135.9270  155.3036 N.3     1  UNL1       -0.2690
      2 C         143.3578  136.6777  156.1451 C.3     1  UNL1        0.0724
      3 C         142.8766  137.6637  157.1679 C.3     1  UNL1        0.0188
      4 C         141.4062  137.8990  157.3492 C.3     1  UNL1        0.0188
      5 C         140.4172  137.1483  156.5077 C.3     1  UNL1        0.0188
      6 C         140.8984  136.1623  155.4848 C.3     1  UNL1        0.0724
      7 C         142.8499  134.9409  154.2807 C.3     1  UNL1        0.0992
      8 C         142.3828  132.5137  155.0808 C.ar    1  UNL1        0.0113
      9 C         141.6726  131.2035  154.9098 C.ar    1  UNL1        0.0009
     10 C         140.7196  131.0105  153.7677 C.ar    1  UNL1        0.0000
     11 C         140.4766  132.1276  152.7966 C.ar    1  UNL1       -0.0003
     12 C         141.1867  133.4378  152.9676 C.ar    1  UNL1       -0.0029
     13 C         142.1398  133.6308  154.1097 C.ar    1  UNL1       -0.0050
     14 O         144.7676  132.2813  156.0850 O.co2   1  UNL1       -0.5446
     15 C         143.3358  132.7067  156.2229 C.2     1  UNL1        0.0726
     16 O         142.8571  133.3251  157.5029 O.co2   1  UNL1       -0.5446
     17 C         140.9250  138.8850  158.3720 C.3     1  UNL1        0.0721
     18 N         140.7874  138.4703  159.8070 N.3     1  UNL1       -0.2724
     19 C         142.0104  138.1637  160.6196 C.3     1  UNL1        0.0758
     20 C         141.8728  137.7489  162.0545 C.3     1  UNL1        0.0609
     21 C         140.5123  137.6409  162.6769 C.3     1  UNL1        0.1687
     22 C         139.2893  137.9475  161.8643 C.3     1  UNL1        0.0609
     23 C         139.4269  138.3622  160.4293 C.3     1  UNL1        0.0758
     24 O         140.3747  137.2261  164.1119 O.3     1  UNL1       -0.4790
     25 C         140.2900  138.2670  165.1886 C.ar    1  UNL1        0.1393
     26 C         138.9633  138.6071  165.8002 C.ar    1  UNL1        0.0378
     27 C         138.8786  139.6481  166.8770 C.ar    1  UNL1        0.0154
     28 C         140.1206  140.3488  167.3420 C.ar    1  UNL1        0.0684
     29 CL        140.0359  141.3897  168.4187 Cl      1  UNL1       -0.0814
     30 C         141.4473  140.0087  166.7303 C.ar    1  UNL1        0.0712
     31 CL        142.6893  140.7095  167.1954 Cl      1  UNL1       -0.0813
     32 C         141.5320  138.9679  165.6536 C.ar    1  UNL1        0.0491
@<TRIPOS>UNITY_ATOM_ATTR
14 1
charge -1
@<TRIPOS>BOND
     1    14    15   ar
     2    15    16   ar
     3    15     8    1
     4     8     9   ar
     5     9    10   ar
     6    10    11   ar
     7    11    12   ar
     8    12    13   ar
     9    13     7    1
    10     7     1    1
    11     1     2    1
    12     2     3    1
    13     3     4    1
    14     4    17    1
    15    17    18    1
    16    18    19    1
    17    19    20    1
    18    20    21    1
    19    21    24    1
    20    24    25    1
    21    25    26   ar
    22    26    27   ar
    23    27    28   ar
    24    28    29    1
    25    28    30   ar
    26    30    31    1
    27    30    32   ar
    28    21    22    1
    29    22    23    1
    30     4     5    1
    31     5     6    1
    32    13     8   ar
    33     6     1    1
    34    23    18    1
    35    32    25   ar
