@<TRIPOS>MOLECULE
*****
 31 35 0 0 0
SMALL
GASTEIGER

@<TRIPOS>ATOM
      1 C         139.5115  138.9743  161.3176 C.ar    1  UNL1       -0.0003
      2 C         138.5320  139.4934  160.3072 C.ar    1  UNL1        0.0001
      3 C         138.8917  139.5047  158.8510 C.ar    1  UNL1        0.0042
      4 C         140.2309  138.9969  158.4053 C.ar    1  UNL1        0.0497
      5 C         141.2104  138.4778  159.4157 C.ar    1  UNL1       -0.0161
      6 C         140.8507  138.4665  160.8719 C.ar    1  UNL1       -0.0041
      7 C         142.5496  137.9699  158.9700 C.3     1  UNL1        0.0480
      8 C         142.9093  137.9812  157.5138 C.3     1  UNL1        0.0984
      9 N         141.9297  138.5004  156.5033 N.am    1  UNL1       -0.2743
     10 C         140.5905  139.0082  156.9490 C.2     1  UNL1        0.2488
     11 O         139.6110  139.5273  155.9386 O.2     1  UNL1       -0.2699
     12 C         138.4326  138.9403  165.6863 C.ar    1  UNL1        0.0536
     13 C         139.1007  137.7473  165.0694 C.ar    1  UNL1        0.0045
     14 C         139.4603  137.7586  163.6132 C.ar    1  UNL1        0.0001
     15 C         139.1519  138.9630  162.7739 C.ar    1  UNL1       -0.0000
     16 C         138.4838  140.1559  163.3907 C.ar    1  UNL1        0.0001
     17 C         138.1242  140.1446  164.8470 C.ar    1  UNL1        0.0045
     18 O         136.9560  138.0558  167.6324 O.2     1  UNL1       -0.2699
     19 C         138.0730  138.9289  167.1425 C.2     1  UNL1        0.2490
     20 N         138.8304  139.7907  168.1087 N.am    1  UNL1       -0.2761
     21 C         138.5858  139.8841  169.5857 C.3     1  UNL1        0.0938
     22 C         139.5696  140.8615  170.1575 C.3     1  UNL1        0.0233
     23 C         140.4221  141.3722  169.0339 C.3     1  UNL1        0.0233
     24 C         139.9652  140.7104  167.7677 C.3     1  UNL1        0.0938
     25 C         142.2894  138.5117  155.0471 C.3     1  UNL1        0.1110
     26 C         142.0005  137.3123  154.1939 C.3     1  UNL1        0.0939
     27 N         142.2378  135.9330  154.7338 N.3     1  UNL1       -0.2712
     28 C         143.5706  135.3405  155.0835 C.3     1  UNL1        0.0722
     29 C         143.3405  133.9454  155.5846 C.3     1  UNL1        0.0188
     30 C         141.8654  133.6759  155.5445 C.3     1  UNL1        0.0188
     31 C         141.1839  134.9044  155.0187 C.3     1  UNL1        0.0722
@<TRIPOS>BOND
     1    18    19    2
     2    19    12    1
     3    12    13   ar
     4    13    14   ar
     5    14    15   ar
     6    15     1    1
     7     1     2   ar
     8     2     3   ar
     9     3     4   ar
    10     4     5   ar
    11     5     6   ar
    12     5     7    1
    13     7     8    1
    14     8     9    1
    15     9    25    1
    16    25    26    1
    17    26    27    1
    18    27    28    1
    19    28    29    1
    20    29    30    1
    21    30    31    1
    22     9    10   am
    23    10    11    2
    24    15    16   ar
    25    16    17   ar
    26    19    20   am
    27    20    21    1
    28    21    22    1
    29    22    23    1
    30    23    24    1
    31    17    12   ar
    32    24    20    1
    33     6     1   ar
    34    31    27    1
    35    10     4    1
@<TRIPOS>MOLECULE
*****
 31 35 0 0 0
SMALL
GASTEIGER

@<TRIPOS>ATOM
      1 C         140.6458  138.4975  161.1452 C.ar    1  UNL1       -0.0003
      2 C         142.1322  138.4114  160.9630 C.ar    1  UNL1        0.0001
      3 C         142.7164  138.3535  159.5826 C.ar    1  UNL1        0.0042
      4 C         141.8142  138.3817  158.3846 C.ar    1  UNL1        0.0497
      5 C         140.3278  138.4679  158.5669 C.ar    1  UNL1       -0.0161
      6 C         139.7437  138.5258  159.9472 C.ar    1  UNL1       -0.0041
      7 C         139.4257  138.4961  157.3689 C.3     1  UNL1        0.0480
      8 C         140.0098  138.4382  155.9885 C.3     1  UNL1        0.0984
      9 N         141.4963  138.3521  155.8062 N.am    1  UNL1       -0.2743
     10 C         142.3985  138.3238  157.0042 C.2     1  UNL1        0.2488
     11 O         143.8848  138.2376  156.8219 O.2     1  UNL1       -0.2699
     12 C         138.8931  138.6712  165.2863 C.ar    1  UNL1        0.0536
     13 C         139.8917  137.6072  164.9385 C.ar    1  UNL1        0.0045
     14 C         140.4759  137.5494  163.5582 C.ar    1  UNL1        0.0001
     15 C         140.0616  138.5554  162.5256 C.ar    1  UNL1       -0.0000
     16 C         139.0631  139.6194  162.8734 C.ar    1  UNL1        0.0001
     17 C         138.4789  139.6773  164.2538 C.ar    1  UNL1        0.0045
     18 O         137.1037  137.9033  167.0062 O.2     1  UNL1       -0.2699
     19 C         138.3090  138.7291  166.6666 C.2     1  UNL1        0.2490
     20 N         138.9300  139.6128  167.7074 N.am    1  UNL1       -0.2761
     21 C         138.4593  139.7735  169.1225 C.3     1  UNL1        0.0938
     22 C         139.3692  140.7510  169.8055 C.3     1  UNL1        0.0233
     23 C         140.4024  141.1944  168.8125 C.3     1  UNL1        0.0233
     24 C         140.1310  140.4910  167.5158 C.3     1  UNL1        0.0938
     25 C         142.0805  138.2942  154.4259 C.3     1  UNL1        0.1110
     26 C         142.2323  136.9738  153.7305 C.3     1  UNL1        0.0939
     27 N         142.3811  135.7158  154.5338 N.3     1  UNL1       -0.2712
     28 C         143.6389  135.2357  155.1953 C.3     1  UNL1        0.0722
     29 C         143.3334  133.9402  155.8871 C.3     1  UNL1        0.0188
     30 C         141.8868  133.6197  155.6531 C.3     1  UNL1        0.0188
     31 C         141.2983  134.7170  154.8167 C.3     1  UNL1        0.0722
@<TRIPOS>BOND
     1    18    19    2
     2    19    12    1
     3    12    13   ar
     4    13    14   ar
     5    14    15   ar
     6    15     1    1
     7     1     2   ar
     8     2     3   ar
     9     3     4   ar
    10     4     5   ar
    11     5     6   ar
    12     5     7    1
    13     7     8    1
    14     8     9    1
    15     9    25    1
    16    25    26    1
    17    26    27    1
    18    27    28    1
    19    28    29    1
    20    29    30    1
    21    30    31    1
    22     9    10   am
    23    10    11    2
    24    15    16   ar
    25    16    17   ar
    26    19    20   am
    27    20    21    1
    28    21    22    1
    29    22    23    1
    30    23    24    1
    31    17    12   ar
    32    24    20    1
    33     6     1   ar
    34    31    27    1
    35    10     4    1
@<TRIPOS>MOLECULE
*****
 31 35 0 0 0
SMALL
GASTEIGER

@<TRIPOS>ATOM
      1 C         139.9355  139.1372  162.5541 C.ar    1  UNL1       -0.0003
      2 C         138.7477  139.3868  161.6728 C.ar    1  UNL1        0.0001
      3 C         138.8421  139.1334  160.1974 C.ar    1  UNL1        0.0042
      4 C         140.1243  138.6305  159.6033 C.ar    1  UNL1        0.0497
      5 C         141.3122  138.3810  160.4846 C.ar    1  UNL1       -0.0161
      6 C         141.2178  138.6343  161.9600 C.ar    1  UNL1       -0.0041
      7 C         142.5944  137.8781  159.8905 C.3     1  UNL1        0.0480
      8 C         142.6888  137.6247  158.4151 C.3     1  UNL1        0.0984
      9 N         141.5009  137.8742  157.5337 N.am    1  UNL1       -0.2743
     10 C         140.2187  138.3772  158.1278 C.2     1  UNL1        0.2488
     11 O         139.0308  138.6267  157.2465 O.2     1  UNL1       -0.2699
     12 C         139.6525  139.8973  166.9805 C.ar    1  UNL1        0.0536
     13 C         138.4179  139.9498  166.1300 C.ar    1  UNL1        0.0045
     14 C         138.5123  139.6964  164.6546 C.ar    1  UNL1        0.0001
     15 C         139.8412  139.3906  164.0296 C.ar    1  UNL1       -0.0000
     16 C         141.0757  139.3381  164.8800 C.ar    1  UNL1        0.0001
     17 C         140.9813  139.5915  166.3555 C.ar    1  UNL1        0.0045
     18 O         138.4637  139.5114  169.2582 O.2     1  UNL1       -0.2699
     19 C         139.5581  140.1507  168.4559 C.2     1  UNL1        0.2490
     20 N         140.5581  141.0433  169.1290 N.am    1  UNL1       -0.2761
     21 C         140.5906  141.3878  170.5885 C.3     1  UNL1        0.0938
     22 C         141.7537  142.3056  170.8224 C.3     1  UNL1        0.0233
     23 C         142.4401  142.5285  169.5073 C.3     1  UNL1        0.0233
     24 C         141.7011  141.7483  168.4608 C.3     1  UNL1        0.0938
     25 C         141.5953  137.6209  156.0583 C.3     1  UNL1        0.1110
     26 C         141.1052  136.3233  155.4873 C.3     1  UNL1        0.0939
     27 N         141.9441  135.0858  155.6093 N.3     1  UNL1       -0.2712
     28 C         141.4797  133.6791  155.3736 C.3     1  UNL1        0.0722
     29 C         142.6433  132.7616  155.6071 C.3     1  UNL1        0.0188
     30 C         143.8268  133.6013  155.9870 C.3     1  UNL1        0.0188
     31 C         143.3946  135.0377  155.9884 C.3     1  UNL1        0.0722
@<TRIPOS>BOND
     1    18    19    2
     2    19    12    1
     3    12    13   ar
     4    13    14   ar
     5    14    15   ar
     6    15     1    1
     7     1     2   ar
     8     2     3   ar
     9     3     4   ar
    10     4     5   ar
    11     5     6   ar
    12     5     7    1
    13     7     8    1
    14     8     9    1
    15     9    25    1
    16    25    26    1
    17    26    27    1
    18    27    28    1
    19    28    29    1
    20    29    30    1
    21    30    31    1
    22     9    10   am
    23    10    11    2
    24    15    16   ar
    25    16    17   ar
    26    19    20   am
    27    20    21    1
    28    21    22    1
    29    22    23    1
    30    23    24    1
    31    17    12   ar
    32    24    20    1
    33     6     1   ar
    34    31    27    1
    35    10     4    1
@<TRIPOS>MOLECULE
*****
 31 35 0 0 0
SMALL
GASTEIGER

@<TRIPOS>ATOM
      1 C         140.1662  138.7666  162.5558 C.ar    1  UNL1       -0.0003
      2 C         139.0986  137.8743  163.1161 C.ar    1  UNL1        0.0001
      3 C         138.6912  138.0038  164.5539 C.ar    1  UNL1        0.0042
      4 C         139.3515  139.0256  165.4313 C.ar    1  UNL1        0.0497
      5 C         140.4191  139.9179  164.8710 C.ar    1  UNL1       -0.0161
      6 C         140.8264  139.7884  163.4332 C.ar    1  UNL1       -0.0041
      7 C         141.0793  140.9397  165.7485 C.3     1  UNL1        0.0480
      8 C         140.6720  141.0693  167.1863 C.3     1  UNL1        0.0984
      9 N         139.6043  140.1769  167.7467 N.am    1  UNL1       -0.2743
     10 C         138.9441  139.1551  166.8692 C.2     1  UNL1        0.2488
     11 O         137.8765  138.2628  167.4295 O.2     1  UNL1       -0.2699
     12 C         141.3884  138.3781  158.2423 C.ar    1  UNL1        0.0536
     13 C         142.4340  138.5239  159.3080 C.ar    1  UNL1        0.0045
     14 C         142.0266  138.6534  160.7457 C.ar    1  UNL1        0.0001
     15 C         140.5736  138.6371  161.1179 C.ar    1  UNL1       -0.0000
     16 C         139.5280  138.4914  160.0524 C.ar    1  UNL1        0.0001
     17 C         139.9354  138.3619  158.6145 C.ar    1  UNL1        0.0045
     18 O         141.5521  139.3807  155.8511 O.2     1  UNL1       -0.2699
     19 C         141.7958  138.2487  156.8046 C.2     1  UNL1        0.2490
     20 N         142.4469  136.9872  156.3203 N.am    1  UNL1       -0.2761
     21 C         142.9061  136.7139  154.9187 C.3     1  UNL1        0.0938
     22 C         143.4961  135.3353  154.8847 C.3     1  UNL1        0.0233
     23 C         143.4016  134.7564  156.2653 C.3     1  UNL1        0.0233
     24 C         142.7531  135.7773  157.1525 C.3     1  UNL1        0.0938
     25 C         139.1970  140.3064  169.1844 C.3     1  UNL1        0.1110
     26 C         140.2286  140.2035  170.2684 C.3     1  UNL1        0.0939
     27 N         141.4255  141.1077  170.2531 N.3     1  UNL1       -0.2712
     28 C         141.4207  142.5813  170.5332 C.3     1  UNL1        0.0722
     29 C         142.8295  143.0814  170.4081 C.3     1  UNL1        0.0188
     30 C         143.7047  141.9167  170.0507 C.3     1  UNL1        0.0188
     31 C         142.8370  140.6970  169.9548 C.3     1  UNL1        0.0722
@<TRIPOS>BOND
     1    18    19    2
     2    19    12    1
     3    12    13   ar
     4    13    14   ar
     5    14    15   ar
     6    15     1    1
     7     1     2   ar
     8     2     3   ar
     9     3     4   ar
    10     4     5   ar
    11     5     6   ar
    12     5     7    1
    13     7     8    1
    14     8     9    1
    15     9    25    1
    16    25    26    1
    17    26    27    1
    18    27    28    1
    19    28    29    1
    20    29    30    1
    21    30    31    1
    22     9    10   am
    23    10    11    2
    24    15    16   ar
    25    16    17   ar
    26    19    20   am
    27    20    21    1
    28    21    22    1
    29    22    23    1
    30    23    24    1
    31    17    12   ar
    32    24    20    1
    33     6     1   ar
    34    31    27    1
    35    10     4    1
@<TRIPOS>MOLECULE
*****
 31 35 0 0 0
SMALL
GASTEIGER

@<TRIPOS>ATOM
      1 C         142.0695  140.1760  162.2317 C.ar    1  UNL1       -0.0003
      2 C         141.8885  138.9765  161.3494 C.ar    1  UNL1        0.0001
      3 C         142.5069  138.9504  159.9831 C.ar    1  UNL1        0.0042
      4 C         143.3062  140.1237  159.4990 C.ar    1  UNL1        0.0497
      5 C         143.4872  141.3232  160.3813 C.ar    1  UNL1       -0.0161
      6 C         142.8689  141.3493  161.7476 C.ar    1  UNL1       -0.0041
      7 C         144.2866  142.4965  159.8973 C.3     1  UNL1        0.0480
      8 C         144.9050  142.4704  158.5309 C.3     1  UNL1        0.0984
      9 N         144.7240  141.2709  157.6486 N.am    1  UNL1       -0.2743
     10 C         143.9246  140.0975  158.1326 C.2     1  UNL1        0.2488
     11 O         143.7436  138.8981  157.2503 O.2     1  UNL1       -0.2699
     12 C         140.2143  140.2546  166.3308 C.ar    1  UNL1        0.0536
     13 C         139.6166  141.0680  165.2212 C.ar    1  UNL1        0.0045
     14 C         140.2350  141.0418  163.8549 C.ar    1  UNL1        0.0001
     15 C         141.4511  140.2022  163.5981 C.ar    1  UNL1       -0.0000
     16 C         142.0488  139.3887  164.7075 C.ar    1  UNL1        0.0001
     17 C         141.4304  139.4149  166.0739 C.ar    1  UNL1        0.0045
     18 O         138.6383  139.2017  168.1078 O.2     1  UNL1       -0.2699
     19 C         139.5959  140.2808  167.6971 C.2     1  UNL1        0.2490
     20 N         139.9351  141.3860  168.6527 N.am    1  UNL1       -0.2761
     21 C         139.3984  141.5439  170.0445 C.3     1  UNL1        0.0938
     22 C         140.0021  142.7829  170.6363 C.3     1  UNL1        0.0233
     23 C         140.9121  143.3908  169.6103 C.3     1  UNL1        0.0233
     24 C         140.8706  142.5275  168.3844 C.3     1  UNL1        0.0938
     25 C         145.3424  141.2447  156.2823 C.3     1  UNL1        0.1110
     26 C         145.9114  142.5010  155.6924 C.3     1  UNL1        0.0939
     27 N         147.2662  142.4807  155.0488 N.3     1  UNL1       -0.2712
     28 C         147.6673  143.2329  153.8146 C.3     1  UNL1        0.0722
     29 C         149.1068  142.9217  153.5294 C.3     1  UNL1        0.0188
     30 C         149.5952  141.9772  154.5874 C.3     1  UNL1        0.0188
     31 C         148.4577  141.7046  155.5264 C.3     1  UNL1        0.0722
@<TRIPOS>BOND
     1    18    19    2
     2    19    12    1
     3    12    13   ar
     4    13    14   ar
     5    14    15   ar
     6    15     1    1
     7     1     2   ar
     8     2     3   ar
     9     3     4   ar
    10     4     5   ar
    11     5     6   ar
    12     5     7    1
    13     7     8    1
    14     8     9    1
    15     9    25    1
    16    25    26    1
    17    26    27    1
    18    27    28    1
    19    28    29    1
    20    29    30    1
    21    30    31    1
    22     9    10   am
    23    10    11    2
    24    15    16   ar
    25    16    17   ar
    26    19    20   am
    27    20    21    1
    28    21    22    1
    29    22    23    1
    30    23    24    1
    31    17    12   ar
    32    24    20    1
    33     6     1   ar
    34    31    27    1
    35    10     4    1
@<TRIPOS>MOLECULE
*****
 31 35 0 0 0
SMALL
GASTEIGER

@<TRIPOS>ATOM
      1 C         142.1062  138.7146  162.6200 C.ar    1  UNL1       -0.0003
      2 C         143.3462  138.1915  161.9576 C.ar    1  UNL1        0.0001
      3 C         143.3466  137.9071  160.4848 C.ar    1  UNL1        0.0042
      4 C         142.1070  138.1457  159.6745 C.ar    1  UNL1        0.0497
      5 C         140.8671  138.6688  160.3370 C.ar    1  UNL1       -0.0161
      6 C         140.8667  138.9532  161.8097 C.ar    1  UNL1       -0.0041
      7 C         139.6275  138.9074  159.5267 C.3     1  UNL1        0.0480
      8 C         139.6279  138.6230  158.0539 C.3     1  UNL1        0.0984
      9 N         140.8679  138.0999  157.3914 N.am    1  UNL1       -0.2743
     10 C         142.1075  137.8612  158.2017 C.2     1  UNL1        0.2488
     11 O         143.3474  137.3382  157.5392 O.2     1  UNL1       -0.2699
     12 C         142.1049  139.5680  167.0384 C.ar    1  UNL1        0.0536
     13 C         140.8410  139.1317  166.3584 C.ar    1  UNL1        0.0045
     14 C         140.8415  138.8472  164.8856 C.ar    1  UNL1        0.0001
     15 C         142.1058  138.9991  164.0928 C.ar    1  UNL1       -0.0000
     16 C         143.3696  139.4353  164.7728 C.ar    1  UNL1        0.0001
     17 C         143.3692  139.7198  166.2456 C.ar    1  UNL1        0.0045
     18 O         142.7240  138.8738  169.4643 O.2     1  UNL1       -0.2699
     19 C         142.1044  139.8524  168.5112 C.2     1  UNL1        0.2490
     20 N         141.4843  141.1155  169.0308 N.am    1  UNL1       -0.2761
     21 C         141.4090  141.5337  170.4694 C.3     1  UNL1        0.0938
     22 C         140.7087  142.8588  170.5308 C.3     1  UNL1        0.0233
     23 C         140.3513  143.2596  169.1302 C.3     1  UNL1        0.0233
     24 C         140.8306  142.1821  168.2032 C.3     1  UNL1        0.0938
     25 C         140.8683  137.8154  155.9186 C.3     1  UNL1        0.1110
     26 C         140.2065  136.5757  155.3940 C.3     1  UNL1        0.0939
     27 N         141.0414  135.4266  154.9118 N.3     1  UNL1       -0.2712
     28 C         141.1019  134.9102  153.5048 C.3     1  UNL1        0.0722
     29 C         142.0603  133.7565  153.4752 C.3     1  UNL1        0.0188
     30 C         142.5921  133.5601  154.8640 C.3     1  UNL1        0.0188
     31 C         141.9624  134.5923  155.7518 C.3     1  UNL1        0.0722
@<TRIPOS>BOND
     1    18    19    2
     2    19    12    1
     3    12    13   ar
     4    13    14   ar
     5    14    15   ar
     6    15     1    1
     7     1     2   ar
     8     2     3   ar
     9     3     4   ar
    10     4     5   ar
    11     5     6   ar
    12     5     7    1
    13     7     8    1
    14     8     9    1
    15     9    25    1
    16    25    26    1
    17    26    27    1
    18    27    28    1
    19    28    29    1
    20    29    30    1
    21    30    31    1
    22     9    10   am
    23    10    11    2
    24    15    16   ar
    25    16    17   ar
    26    19    20   am
    27    20    21    1
    28    21    22    1
    29    22    23    1
    30    23    24    1
    31    17    12   ar
    32    24    20    1
    33     6     1   ar
    34    31    27    1
    35    10     4    1
@<TRIPOS>MOLECULE
*****
 31 35 0 0 0
SMALL
GASTEIGER

@<TRIPOS>ATOM
      1 C         139.1442  139.8636  162.5341 C.ar    1  UNL1       -0.0003
      2 C         139.3908  138.5858  161.7884 C.ar    1  UNL1        0.0001
      3 C         139.3319  138.5688  160.2897 C.ar    1  UNL1        0.0042
      4 C         139.0263  139.8296  159.5367 C.ar    1  UNL1        0.0497
      5 C         138.7796  141.1074  160.2825 C.ar    1  UNL1       -0.0161
      6 C         138.8385  141.1244  161.7812 C.ar    1  UNL1       -0.0041
      7 C         138.4740  142.3682  159.5295 C.3     1  UNL1        0.0480
      8 C         138.4150  142.3512  158.0308 C.3     1  UNL1        0.0984
      9 N         138.6617  141.0733  157.2850 N.am    1  UNL1       -0.2743
     10 C         138.9673  139.8125  158.0379 C.2     1  UNL1        0.2488
     11 O         139.2140  138.5347  157.2921 O.2     1  UNL1       -0.2699
     12 C         139.3210  139.9148  167.0304 C.ar    1  UNL1        0.0536
     13 C         138.8558  138.6829  166.3121 C.ar    1  UNL1        0.0045
     14 C         138.7968  138.6658  164.8133 C.ar    1  UNL1        0.0001
     15 C         139.2031  139.8807  164.0329 C.ar    1  UNL1       -0.0000
     16 C         139.6683  141.1126  164.7512 C.ar    1  UNL1        0.0001
     17 C         139.7272  141.1297  166.2500 C.ar    1  UNL1        0.0045
     18 O         138.1521  139.6178  169.3316 O.2     1  UNL1       -0.2699
     19 C         139.3799  139.9318  168.5291 C.2     1  UNL1        0.2490
     20 N         140.6666  140.2629  169.2254 N.am    1  UNL1       -0.2761
     21 C         140.8769  140.3187  170.7095 C.3     1  UNL1        0.0938
     22 C         142.3092  140.6865  170.9611 C.3     1  UNL1        0.0233
     23 C         142.9841  140.8580  169.6325 C.3     1  UNL1        0.0233
     24 C         141.9688  140.5961  168.5598 C.3     1  UNL1        0.0938
     25 C         138.6028  141.0563  155.7862 C.3     1  UNL1        0.1110
     26 C         137.6653  141.9765  155.0620 C.3     1  UNL1        0.0939
     27 N         136.2185  141.6090  154.9144 N.3     1  UNL1       -0.2712
     28 C         135.3955  141.7512  153.6685 C.3     1  UNL1        0.0722
     29 C         134.0090  141.2649  153.9709 C.3     1  UNL1        0.0188
     30 C         133.9753  140.8221  155.4037 C.3     1  UNL1        0.0188
     31 C         135.3409  141.0348  155.9868 C.3     1  UNL1        0.0722
@<TRIPOS>BOND
     1    18    19    2
     2    19    12    1
     3    12    13   ar
     4    13    14   ar
     5    14    15   ar
     6    15     1    1
     7     1     2   ar
     8     2     3   ar
     9     3     4   ar
    10     4     5   ar
    11     5     6   ar
    12     5     7    1
    13     7     8    1
    14     8     9    1
    15     9    25    1
    16    25    26    1
    17    26    27    1
    18    27    28    1
    19    28    29    1
    20    29    30    1
    21    30    31    1
    22     9    10   am
    23    10    11    2
    24    15    16   ar
    25    16    17   ar
    26    19    20   am
    27    20    21    1
    28    21    22    1
    29    22    23    1
    30    23    24    1
    31    17    12   ar
    32    24    20    1
    33     6     1   ar
    34    31    27    1
    35    10     4    1
@<TRIPOS>MOLECULE
*****
 31 35 0 0 0
SMALL
GASTEIGER

@<TRIPOS>ATOM
      1 C         139.5274  142.7521  159.8217 C.ar    1  UNL1       -0.0003
      2 C         139.8966  141.3044  159.6876 C.ar    1  UNL1        0.0001
      3 C         139.6928  140.3685  160.8419 C.ar    1  UNL1        0.0042
      4 C         139.1199  140.8801  162.1303 C.ar    1  UNL1        0.0497
      5 C         138.7507  142.3278  162.2644 C.ar    1  UNL1       -0.0161
      6 C         138.9545  143.2637  161.1101 C.ar    1  UNL1       -0.0041
      7 C         138.1777  142.8394  163.5528 C.3     1  UNL1        0.0480
      8 C         137.9739  141.9035  164.7070 C.3     1  UNL1        0.0984
      9 N         138.3431  140.4558  164.5730 N.am    1  UNL1       -0.2743
     10 C         138.9161  139.9441  163.2846 C.2     1  UNL1        0.2488
     11 O         139.2852  138.4965  163.1505 O.2     1  UNL1       -0.2699
     12 C         140.1387  145.5601  156.3588 C.ar    1  UNL1        0.0536
     13 C         139.2017  144.3965  156.2245 C.ar    1  UNL1        0.0045
     14 C         138.9979  143.4605  157.3788 C.ar    1  UNL1        0.0001
     15 C         139.7312  143.6881  158.6674 C.ar    1  UNL1       -0.0000
     16 C         140.6682  144.8517  158.8017 C.ar    1  UNL1        0.0001
     17 C         140.8720  145.7877  157.6474 C.ar    1  UNL1        0.0045
     18 O         141.1645  146.0657  154.0260 O.2     1  UNL1       -0.2699
     19 C         140.3425  146.4961  155.2046 C.2     1  UNL1        0.2490
     20 N         139.7242  147.8625  155.2289 N.am    1  UNL1       -0.2761
     21 C         139.8399  148.9018  154.1535 C.3     1  UNL1        0.0938
     22 C         139.0689  150.1112  154.5928 C.3     1  UNL1        0.0233
     23 C         138.4766  149.8193  155.9397 C.3     1  UNL1        0.0233
     24 C         138.8817  148.4295  156.3328 C.3     1  UNL1        0.0938
     25 C         138.1393  139.5198  165.7273 C.3     1  UNL1        0.1110
     26 C         139.2624  139.2555  166.6859 C.3     1  UNL1        0.0939
     27 N         139.5976  140.2639  167.7447 N.3     1  UNL1       -0.2712
     28 C         140.3622  141.5378  167.5383 C.3     1  UNL1        0.0722
     29 C         140.4643  142.2366  168.8618 C.3     1  UNL1        0.0188
     30 C         139.7628  141.3945  169.8859 C.3     1  UNL1        0.0188
     31 C         139.2272  140.1753  169.1955 C.3     1  UNL1        0.0722
@<TRIPOS>BOND
     1    18    19    2
     2    19    12    1
     3    12    13   ar
     4    13    14   ar
     5    14    15   ar
     6    15     1    1
     7     1     2   ar
     8     2     3   ar
     9     3     4   ar
    10     4     5   ar
    11     5     6   ar
    12     5     7    1
    13     7     8    1
    14     8     9    1
    15     9    25    1
    16    25    26    1
    17    26    27    1
    18    27    28    1
    19    28    29    1
    20    29    30    1
    21    30    31    1
    22     9    10   am
    23    10    11    2
    24    15    16   ar
    25    16    17   ar
    26    19    20   am
    27    20    21    1
    28    21    22    1
    29    22    23    1
    30    23    24    1
    31    17    12   ar
    32    24    20    1
    33     6     1   ar
    34    31    27    1
    35    10     4    1
@<TRIPOS>MOLECULE
*****
 31 35 0 0 0
SMALL
GASTEIGER

@<TRIPOS>ATOM
      1 C         142.9432  138.1597  157.9993 C.ar    1  UNL1       -0.0003
      2 C         143.3113  139.5883  157.7280 C.ar    1  UNL1        0.0001
      3 C         143.7061  140.4891  158.8605 C.ar    1  UNL1        0.0042
      4 C         143.7329  139.9613  160.2644 C.ar    1  UNL1        0.0497
      5 C         143.3649  138.5327  160.5357 C.ar    1  UNL1       -0.0161
      6 C         142.9701  137.6319  159.4032 C.ar    1  UNL1       -0.0041
      7 C         143.3917  138.0049  161.9395 C.3     1  UNL1        0.0480
      8 C         143.7866  138.9057  163.0720 C.3     1  UNL1        0.0984
      9 N         144.1546  140.3344  162.8007 N.am    1  UNL1       -0.2743
     10 C         144.1278  140.8622  161.3969 C.2     1  UNL1        0.2488
     11 O         144.4958  142.2908  161.1256 O.2     1  UNL1       -0.2699
     12 C         141.7586  135.4571  154.6018 C.ar    1  UNL1        0.0536
     13 C         140.7038  136.1602  155.4038 C.ar    1  UNL1        0.0045
     14 C         141.0987  137.0610  156.5363 C.ar    1  UNL1        0.0001
     15 C         142.5484  137.2588  156.8668 C.ar    1  UNL1       -0.0000
     16 C         143.6032  136.5558  156.0649 C.ar    1  UNL1        0.0001
     17 C         143.2083  135.6550  154.9323 C.ar    1  UNL1        0.0045
     18 O         141.2376  135.1088  152.0805 O.2     1  UNL1       -0.2699
     19 C         141.3637  134.5563  153.4693 C.2     1  UNL1        0.2490
     20 N         141.0949  133.1031  153.7257 N.am    1  UNL1       -0.2761
     21 C         140.6936  132.0861  152.6987 C.3     1  UNL1        0.0938
     22 C         140.5309  130.7661  153.3924 C.3     1  UNL1        0.0233
     23 C         140.8317  130.9673  154.8481 C.3     1  UNL1        0.0233
     24 C         141.1803  132.4116  155.0541 C.3     1  UNL1        0.0938
     25 C         144.5495  141.2352  163.9332 C.3     1  UNL1        0.1110
     26 C         143.5003  141.7927  164.8489 C.3     1  UNL1        0.0939
     27 N         142.7804  143.0568  164.4831 N.3     1  UNL1       -0.2712
     28 C         141.3026  143.2917  164.5882 C.3     1  UNL1        0.0722
     29 C         141.0207  144.6880  164.1179 C.3     1  UNL1        0.0188
     30 C         142.3243  145.3159  163.7223 C.3     1  UNL1        0.0188
     31 C         143.4118  144.3077  163.9480 C.3     1  UNL1        0.0722
@<TRIPOS>BOND
     1    18    19    2
     2    19    12    1
     3    12    13   ar
     4    13    14   ar
     5    14    15   ar
     6    15     1    1
     7     1     2   ar
     8     2     3   ar
     9     3     4   ar
    10     4     5   ar
    11     5     6   ar
    12     5     7    1
    13     7     8    1
    14     8     9    1
    15     9    25    1
    16    25    26    1
    17    26    27    1
    18    27    28    1
    19    28    29    1
    20    29    30    1
    21    30    31    1
    22     9    10   am
    23    10    11    2
    24    15    16   ar
    25    16    17   ar
    26    19    20   am
    27    20    21    1
    28    21    22    1
    29    22    23    1
    30    23    24    1
    31    17    12   ar
    32    24    20    1
    33     6     1   ar
    34    31    27    1
    35    10     4    1
