@<TRIPOS>MOLECULE
*****
 40 44 0 0 0
SMALL
GASTEIGER

@<TRIPOS>ATOM
      1 N         140.6294  139.3444  161.0430 N.pl3   1  UNL1       -0.3426
      2 C         140.8833  139.4008  162.5203 C.ar    1  UNL1        0.1258
      3 N         141.0137  138.1308  163.3079 N.ar    1  UNL1       -0.2296
      4 C         141.2676  138.1871  164.7851 C.ar    1  UNL1        0.1008
      5 C         141.3911  139.5134  165.4749 C.ar    1  UNL1        0.0283
      6 C         141.2607  140.7834  164.6874 C.ar    1  UNL1        0.0337
      7 S         141.3354  142.2263  165.0902 S.2     1  UNL1       -0.0863
      8 C         141.1277  143.0618  163.8619 C.ar    1  UNL1        0.0355
      9 C         140.9246  142.1352  162.6999 C.ar    1  UNL1        0.0096
     10 C         141.0068  140.7270  163.2101 C.ar    1  UNL1        0.0377
     11 H         140.5484  138.4739  160.5904 H       1  UNL1        0.1437
     12 H         140.5438  140.1779  160.5262 H       1  UNL1        0.1437
     13 C         140.6819  142.5449  161.2775 C.ar    1  UNL1        0.0007
     14 C         139.2789  142.6678  160.7614 C.ar    1  UNL1        0.0013
     15 C         139.0361  143.0775  159.3389 C.ar    1  UNL1        0.0147
     16 C         140.1963  143.3642  158.4327 C.ar    1  UNL1        0.0516
     17 C         141.5994  143.2413  158.9488 C.ar    1  UNL1        0.0147
     18 C         141.8422  142.8316  160.3711 C.ar    1  UNL1        0.0013
     19 N         139.9536  143.7739  157.0103 N.am    1  UNL1       -0.2681
     20 C         139.9417  145.2274  156.6401 C.2     1  UNL1        0.3082
     21 O         140.1724  146.2713  157.6923 O.2     1  UNL1       -0.2522
     22 N         139.6989  145.6371  155.2177 N.am    1  UNL1       -0.2680
     23 H         139.8022  143.0888  156.3197 H       1  UNL1        0.1564
     24 H         139.5475  144.9520  154.5271 H       1  UNL1        0.1564
     25 C         139.6870  147.0907  154.8474 C.ar    1  UNL1        0.0538
     26 C         140.5351  147.5824  153.7121 C.ar    1  UNL1        0.0149
     27 C         140.5231  149.0360  153.3419 C.ar    1  UNL1        0.0036
     28 C         139.6630  149.9977  154.1069 C.ar    1  UNL1        0.0297
     29 C         138.8149  149.5060  155.2422 C.ar    1  UNL1        0.1414
     30 F         137.9549  150.4677  156.0072 F       1  UNL1       -0.2041
     31 C         138.8269  148.0524  155.6125 C.ar    1  UNL1        0.0443
     32 C         141.6451  139.5697  166.9522 C.ar    1  UNL1        0.0416
     33 C         142.9079  139.1532  167.6463 C.ar    1  UNL1        0.1217
     34 N         142.7240  139.3784  169.1178 N.ar    1  UNL1       -0.1676
     35 N         141.3474  139.9341  169.3332 N.ar    1  UNL1       -0.2468
     36 C         140.6806  140.0523  167.9948 C.ar    1  UNL1        0.0968
     37 C         140.7436  140.3063  170.6549 C.3     1  UNL1        0.1591
     38 C         140.8676  141.7105  171.1674 C.3     1  UNL1        0.1635
     39 O         142.1047  142.1343  171.9022 O.3     1  UNL1       -0.3799
     40 H         142.1649  141.6497  172.7403 H       1  UNL1        0.2105
@<TRIPOS>BOND
     1     1     2    1
     2     2     3   ar
     3     3     4   ar
     4     4     5   ar
     5     5    32    1
     6    32    33   ar
     7    33    34   ar
     8    34    35   ar
     9    35    37    1
    10    37    38    1
    11    38    39    1
    12    35    36   ar
    13     5     6   ar
    14     6     7   ar
    15     7     8   ar
    16     8     9   ar
    17     9    13    1
    18    13    14   ar
    19    14    15   ar
    20    15    16   ar
    21    16    19    1
    22    19    20   am
    23    20    21    2
    24    20    22   am
    25    22    25    1
    26    25    26   ar
    27    26    27   ar
    28    27    28   ar
    29    28    29   ar
    30    29    30    1
    31    29    31   ar
    32    16    17   ar
    33    17    18   ar
    34     9    10   ar
    35    10     2   ar
    36    36    32   ar
    37    10     6   ar
    38    18    13   ar
    39    31    25   ar
    40     1    11    1
    41     1    12    1
    42    39    40    1
    43    19    23    1
    44    22    24    1
@<TRIPOS>MOLECULE
*****
 40 44 0 0 0
SMALL
GASTEIGER

@<TRIPOS>ATOM
      1 N         138.8194  145.2403  162.1765 N.pl3   1  UNL1       -0.3426
      2 C         139.2333  144.3987  163.3472 C.ar    1  UNL1        0.1258
      3 N         138.8533  144.8106  164.7386 N.ar    1  UNL1       -0.2296
      4 C         139.2671  143.9691  165.9092 C.ar    1  UNL1        0.1008
      5 C         140.0611  142.7157  165.6885 C.ar    1  UNL1        0.0283
      6 C         140.4412  142.3038  164.2972 C.ar    1  UNL1        0.0337
      7 S         141.2137  141.1294  163.7738 S.2     1  UNL1       -0.0863
      8 C         141.2773  141.2452  162.2796 C.ar    1  UNL1        0.0355
      9 C         140.5440  142.4911  161.8795 C.ar    1  UNL1        0.0096
     10 C         140.0273  143.1454  163.1265 C.ar    1  UNL1        0.0377
     11 H         138.2983  146.0629  162.3213 H       1  UNL1        0.1437
     12 H         139.0689  144.9700  161.2633 H       1  UNL1        0.1437
     13 C         140.3599  142.9943  160.4785 C.ar    1  UNL1        0.0007
     14 C         141.4291  143.8253  159.8335 C.ar    1  UNL1        0.0013
     15 C         141.2450  144.3286  158.4324 C.ar    1  UNL1        0.0147
     16 C         139.9917  144.0008  157.6765 C.ar    1  UNL1        0.0516
     17 C         138.9224  143.1697  158.3216 C.ar    1  UNL1        0.0147
     18 C         139.1064  142.6665  159.7225 C.ar    1  UNL1        0.0013
     19 N         139.8075  144.5040  156.2755 N.am    1  UNL1       -0.2681
     20 C         139.7997  145.9791  156.0034 C.2     1  UNL1        0.3082
     21 O         139.9761  146.9509  157.1323 O.2     1  UNL1       -0.2522
     22 N         139.6156  146.4823  154.6024 N.am    1  UNL1       -0.2680
     23 H         139.6918  143.8661  155.5346 H       1  UNL1        0.1564
     24 H         139.4998  145.8444  153.8614 H       1  UNL1        0.1564
     25 C         139.6078  147.9574  154.3302 C.ar    1  UNL1        0.0538
     26 C         140.3500  148.5058  153.1477 C.ar    1  UNL1        0.0149
     27 C         140.3422  149.9809  152.8755 C.ar    1  UNL1        0.0036
     28 C         139.5922  150.9076  153.7859 C.ar    1  UNL1        0.0297
     29 C         138.8500  150.3592  154.9684 C.ar    1  UNL1        0.1414
     30 F         138.1000  151.2859  155.8787 F       1  UNL1       -0.2041
     31 C         138.8578  148.8841  155.2406 C.ar    1  UNL1        0.0443
     32 C         140.4750  141.8742  166.8593 C.ar    1  UNL1        0.0416
     33 C         139.8112  140.6081  167.3136 C.ar    1  UNL1        0.1217
     34 N         140.5513  140.1025  168.5164 N.ar    1  UNL1       -0.1676
     35 N         141.6725  141.0562  168.8054 N.ar    1  UNL1       -0.2468
     36 C         141.6254  142.1511  167.7813 C.ar    1  UNL1        0.0968
     37 C         142.6665  140.9360  169.9224 C.3     1  UNL1        0.1591
     38 C         142.9174  139.6031  170.5630 C.3     1  UNL1        0.1635
     39 O         144.0998  139.4161  171.4668 O.3     1  UNL1       -0.3799
     40 H         144.9173  139.5054  170.9524 H       1  UNL1        0.2105
@<TRIPOS>BOND
     1     1     2    1
     2     2     3   ar
     3     3     4   ar
     4     4     5   ar
     5     5    32    1
     6    32    33   ar
     7    33    34   ar
     8    34    35   ar
     9    35    37    1
    10    37    38    1
    11    38    39    1
    12    35    36   ar
    13     5     6   ar
    14     6     7   ar
    15     7     8   ar
    16     8     9   ar
    17     9    13    1
    18    13    14   ar
    19    14    15   ar
    20    15    16   ar
    21    16    19    1
    22    19    20   am
    23    20    21    2
    24    20    22   am
    25    22    25    1
    26    25    26   ar
    27    26    27   ar
    28    27    28   ar
    29    28    29   ar
    30    29    30    1
    31    29    31   ar
    32    16    17   ar
    33    17    18   ar
    34     9    10   ar
    35    10     2   ar
    36    36    32   ar
    37    10     6   ar
    38    18    13   ar
    39    31    25   ar
    40     1    11    1
    41     1    12    1
    42    39    40    1
    43    19    23    1
    44    22    24    1
@<TRIPOS>MOLECULE
*****
 40 44 0 0 0
SMALL
GASTEIGER

@<TRIPOS>ATOM
      1 N         140.1698  138.1251  162.0827 N.pl3   1  UNL1       -0.3426
      2 C         139.9986  138.6423  163.4802 C.ar    1  UNL1        0.1258
      3 N         138.9535  138.0479  164.3771 N.ar    1  UNL1       -0.2296
      4 C         138.7823  138.5650  165.7746 C.ar    1  UNL1        0.1008
      5 C         139.6563  139.6766  166.2754 C.ar    1  UNL1        0.0283
      6 C         140.7014  140.2709  165.3785 C.ar    1  UNL1        0.0337
      7 S         141.7023  141.3674  165.5929 S.2     1  UNL1       -0.0863
      8 C         142.4921  141.5279  164.3278 C.ar    1  UNL1        0.0355
      9 C         141.9793  140.5306  163.3316 C.ar    1  UNL1        0.0096
     10 C         140.8726  139.7537  163.9810 C.ar    1  UNL1        0.0377
     11 H         139.5962  137.3956  161.7540 H       1  UNL1        0.1437
     12 H         140.8558  138.5152  161.4940 H       1  UNL1        0.1437
     13 C         142.4845  140.3431  161.9317 C.ar    1  UNL1        0.0007
     14 C         141.8595  141.1045  160.8005 C.ar    1  UNL1        0.0013
     15 C         142.3647  140.9171  159.4006 C.ar    1  UNL1        0.0147
     16 C         143.4949  139.9683  159.1319 C.ar    1  UNL1        0.0516
     17 C         144.1200  139.2069  160.2632 C.ar    1  UNL1        0.0147
     18 C         143.6148  139.3943  161.6630 C.ar    1  UNL1        0.0013
     19 N         144.0001  139.7808  157.7321 N.am    1  UNL1       -0.2681
     20 C         144.8481  140.8401  157.0927 C.2     1  UNL1        0.3082
     21 O         145.1908  142.0868  157.8531 O.2     1  UNL1       -0.2522
     22 N         145.3533  140.6526  155.6928 N.am    1  UNL1       -0.2680
     23 H         143.7752  138.9626  157.2330 H       1  UNL1        0.1564
     24 H         145.1284  139.8344  155.1938 H       1  UNL1        0.1564
     25 C         146.2013  141.7119  155.0533 C.ar    1  UNL1        0.0538
     26 C         147.6910  141.5459  154.9946 C.ar    1  UNL1        0.0149
     27 C         148.5390  142.6052  154.3551 C.ar    1  UNL1        0.0036
     28 C         147.8974  143.8304  153.7744 C.ar    1  UNL1        0.0297
     29 C         146.4077  143.9963  153.8332 C.ar    1  UNL1        0.1414
     30 F         145.7661  145.2215  153.2525 F       1  UNL1       -0.2041
     31 C         145.5597  142.9371  154.4726 C.ar    1  UNL1        0.0443
     32 C         139.4851  140.1937  167.6731 C.ar    1  UNL1        0.0416
     33 C         138.6882  139.5408  168.7633 C.ar    1  UNL1        0.1217
     34 N         138.7913  140.3981  169.9898 N.ar    1  UNL1       -0.1676
     35 N         139.6519  141.5809  169.6575 N.ar    1  UNL1       -0.2468
     36 C         140.0807  141.4546  168.2257 C.ar    1  UNL1        0.0968
     37 C         140.0193  142.6946  170.5929 C.3     1  UNL1        0.1591
     38 C         140.4879  144.0101  170.0454 C.3     1  UNL1        0.1635
     39 O         139.8675  145.2874  170.5285 O.3     1  UNL1       -0.3799
     40 H         138.9377  145.3193  170.2539 H       1  UNL1        0.2105
@<TRIPOS>BOND
     1     1     2    1
     2     2     3   ar
     3     3     4   ar
     4     4     5   ar
     5     5    32    1
     6    32    33   ar
     7    33    34   ar
     8    34    35   ar
     9    35    37    1
    10    37    38    1
    11    38    39    1
    12    35    36   ar
    13     5     6   ar
    14     6     7   ar
    15     7     8   ar
    16     8     9   ar
    17     9    13    1
    18    13    14   ar
    19    14    15   ar
    20    15    16   ar
    21    16    19    1
    22    19    20   am
    23    20    21    2
    24    20    22   am
    25    22    25    1
    26    25    26   ar
    27    26    27   ar
    28    27    28   ar
    29    28    29   ar
    30    29    30    1
    31    29    31   ar
    32    16    17   ar
    33    17    18   ar
    34     9    10   ar
    35    10     2   ar
    36    36    32   ar
    37    10     6   ar
    38    18    13   ar
    39    31    25   ar
    40     1    11    1
    41     1    12    1
    42    39    40    1
    43    19    23    1
    44    22    24    1
@<TRIPOS>MOLECULE
*****
 40 44 0 0 0
SMALL
GASTEIGER

@<TRIPOS>ATOM
      1 N         139.8723  138.4524  162.3856 N.pl3   1  UNL1       -0.3426
      2 C         139.9413  138.9482  163.7996 C.ar    1  UNL1        0.1258
      3 N         138.8627  138.5830  164.7759 N.ar    1  UNL1       -0.2296
      4 C         138.9317  139.0788  166.1898 C.ar    1  UNL1        0.1008
      5 C         140.0793  139.9398  166.6276 C.ar    1  UNL1        0.0283
      6 C         141.1580  140.3050  165.6513 C.ar    1  UNL1        0.0337
      7 S         142.4017  141.1315  165.7925 S.2     1  UNL1       -0.0863
      8 C         143.1014  141.1465  164.4658 C.ar    1  UNL1        0.0355
      9 C         142.2901  140.3292  163.5046 C.ar    1  UNL1        0.0096
     10 C         141.0889  139.8092  164.2373 C.ar    1  UNL1        0.0377
     11 H         139.1190  137.8873  162.0983 H       1  UNL1        0.1437
     12 H         140.5802  138.6920  161.7448 H       1  UNL1        0.1437
     13 C         142.6217  140.0765  162.0637 C.ar    1  UNL1        0.0007
     14 C         142.1181  141.0102  161.0033 C.ar    1  UNL1        0.0013
     15 C         142.4497  140.7575  159.5623 C.ar    1  UNL1        0.0147
     16 C         143.2848  139.5711  159.1819 C.ar    1  UNL1        0.0516
     17 C         143.7884  138.6373  160.2424 C.ar    1  UNL1        0.0147
     18 C         143.4569  138.8900  161.6832 C.ar    1  UNL1        0.0013
     19 N         143.6164  139.3184  157.7410 N.am    1  UNL1       -0.2681
     20 C         142.9700  138.1783  157.0115 C.2     1  UNL1        0.3082
     21 O         141.9919  137.2909  157.7229 O.2     1  UNL1       -0.2522
     22 N         143.3016  137.9255  155.5706 N.am    1  UNL1       -0.2680
     23 H         144.2584  139.9008  157.2741 H       1  UNL1        0.1564
     24 H         143.9435  138.5079  155.1037 H       1  UNL1        0.1564
     25 C         142.6551  136.7854  154.8410 C.ar    1  UNL1        0.0538
     26 C         141.4290  137.0252  154.0108 C.ar    1  UNL1        0.0149
     27 C         140.7825  135.8851  153.2812 C.ar    1  UNL1        0.0036
     28 C         141.3621  134.5052  153.3819 C.ar    1  UNL1        0.0297
     29 C         142.5882  134.2655  154.2121 C.ar    1  UNL1        0.1414
     30 F         143.1677  132.8857  154.3127 F       1  UNL1       -0.2041
     31 C         143.2347  135.4056  154.9417 C.ar    1  UNL1        0.0443
     32 C         140.1483  140.4356  168.0416 C.ar    1  UNL1        0.0416
     33 C         139.1082  140.2244  169.1017 C.ar    1  UNL1        0.1217
     34 N         139.5866  140.8879  170.3591 N.ar    1  UNL1       -0.1676
     35 N         140.9223  141.5091  170.0761 N.ar    1  UNL1       -0.2468
     36 C         141.2694  141.2295  168.6438 C.ar    1  UNL1        0.0968
     37 C         141.7633  142.2753  171.0537 C.3     1  UNL1        0.1591
     38 C         142.9991  142.9847  170.5854 C.3     1  UNL1        0.1635
     39 O         143.5075  144.1800  171.3355 O.3     1  UNL1       -0.3799
     40 H         142.8668  144.9045  171.2618 H       1  UNL1        0.2105
@<TRIPOS>BOND
     1     1     2    1
     2     2     3   ar
     3     3     4   ar
     4     4     5   ar
     5     5    32    1
     6    32    33   ar
     7    33    34   ar
     8    34    35   ar
     9    35    37    1
    10    37    38    1
    11    38    39    1
    12    35    36   ar
    13     5     6   ar
    14     6     7   ar
    15     7     8   ar
    16     8     9   ar
    17     9    13    1
    18    13    14   ar
    19    14    15   ar
    20    15    16   ar
    21    16    19    1
    22    19    20   am
    23    20    21    2
    24    20    22   am
    25    22    25    1
    26    25    26   ar
    27    26    27   ar
    28    27    28   ar
    29    28    29   ar
    30    29    30    1
    31    29    31   ar
    32    16    17   ar
    33    17    18   ar
    34     9    10   ar
    35    10     2   ar
    36    36    32   ar
    37    10     6   ar
    38    18    13   ar
    39    31    25   ar
    40     1    11    1
    41     1    12    1
    42    39    40    1
    43    19    23    1
    44    22    24    1
@<TRIPOS>MOLECULE
*****
 40 44 0 0 0
SMALL
GASTEIGER

@<TRIPOS>ATOM
      1 N         138.2382  141.3935  158.8646 N.pl3   1  UNL1       -0.3426
      2 C         138.6263  142.5194  157.9526 C.ar    1  UNL1        0.1258
      3 N         138.0651  142.5866  156.5632 N.ar    1  UNL1       -0.2296
      4 C         138.4532  143.7124  155.6512 C.ar    1  UNL1        0.1008
      5 C         139.4026  144.7712  156.1285 C.ar    1  UNL1        0.0283
      6 C         139.9638  144.7040  157.5179 C.ar    1  UNL1        0.0337
      7 S         140.9132  145.5963  158.2611 S.2     1  UNL1       -0.0863
      8 C         141.1119  145.0219  159.6325 C.ar    1  UNL1        0.0355
      9 C         140.2852  143.7746  159.7368 C.ar    1  UNL1        0.0096
     10 C         139.5757  143.5781  158.4300 C.ar    1  UNL1        0.0377
     11 H         137.6151  140.6987  158.5512 H       1  UNL1        0.1437
     12 H         138.6066  141.3494  159.7765 H       1  UNL1        0.1437
     13 C         140.1856  142.8808  160.9373 C.ar    1  UNL1        0.0007
     14 C         141.1618  141.7563  161.1181 C.ar    1  UNL1        0.0013
     15 C         141.0623  140.8624  162.3186 C.ar    1  UNL1        0.0147
     16 C         139.9866  141.0930  163.3382 C.ar    1  UNL1        0.0516
     17 C         139.0104  142.2175  163.1573 C.ar    1  UNL1        0.0147
     18 C         139.1099  143.1114  161.9569 C.ar    1  UNL1        0.0013
     19 N         139.8870  140.1992  164.5387 N.am    1  UNL1       -0.2681
     20 C         140.4164  140.6614  165.8638 C.2     1  UNL1        0.3082
     21 O         141.0454  142.0174  165.9885 O.2     1  UNL1       -0.2522
     22 N         140.3168  139.7675  167.0643 N.am    1  UNL1       -0.2680
     23 H         139.4742  139.3092  164.4568 H       1  UNL1        0.1564
     24 H         139.9040  138.8775  166.9824 H       1  UNL1        0.1564
     25 C         140.8463  140.2297  168.3895 C.ar    1  UNL1        0.0538
     26 C         142.1395  139.6794  168.9136 C.ar    1  UNL1        0.0149
     27 C         142.6690  140.1416  170.2389 C.ar    1  UNL1        0.0036
     28 C         141.9051  141.1540  171.0399 C.ar    1  UNL1        0.0297
     29 C         140.6119  141.7043  170.5157 C.ar    1  UNL1        0.1414
     30 F         139.8481  142.7166  171.3167 F       1  UNL1       -0.2041
     31 C         140.0824  141.2421  169.1905 C.ar    1  UNL1        0.0443
     32 C         139.7907  145.8970  155.2164 C.ar    1  UNL1        0.0416
     33 C         140.6410  145.7819  153.9861 C.ar    1  UNL1        0.1217
     34 N         140.7724  147.1494  153.3839 N.ar    1  UNL1       -0.1676
     35 N         140.0032  148.1097  154.2420 N.ar    1  UNL1       -0.2468
     36 C         139.3965  147.3356  155.3746 C.ar    1  UNL1        0.0968
     37 C         139.8651  149.5850  154.0086 C.3     1  UNL1        0.1591
     38 C         139.1336  150.4365  155.0035 C.3     1  UNL1        0.1635
     39 O         139.8976  151.3584  155.9069 O.3     1  UNL1       -0.3799
     40 H         140.4463  150.8361  156.5127 H       1  UNL1        0.2105
@<TRIPOS>BOND
     1     1     2    1
     2     2     3   ar
     3     3     4   ar
     4     4     5   ar
     5     5    32    1
     6    32    33   ar
     7    33    34   ar
     8    34    35   ar
     9    35    37    1
    10    37    38    1
    11    38    39    1
    12    35    36   ar
    13     5     6   ar
    14     6     7   ar
    15     7     8   ar
    16     8     9   ar
    17     9    13    1
    18    13    14   ar
    19    14    15   ar
    20    15    16   ar
    21    16    19    1
    22    19    20   am
    23    20    21    2
    24    20    22   am
    25    22    25    1
    26    25    26   ar
    27    26    27   ar
    28    27    28   ar
    29    28    29   ar
    30    29    30    1
    31    29    31   ar
    32    16    17   ar
    33    17    18   ar
    34     9    10   ar
    35    10     2   ar
    36    36    32   ar
    37    10     6   ar
    38    18    13   ar
    39    31    25   ar
    40     1    11    1
    41     1    12    1
    42    39    40    1
    43    19    23    1
    44    22    24    1
@<TRIPOS>MOLECULE
*****
 40 44 0 0 0
SMALL
GASTEIGER

@<TRIPOS>ATOM
      1 N         138.5159  138.9918  162.6411 N.pl3   1  UNL1       -0.3426
      2 C         138.8324  139.3775  164.0557 C.ar    1  UNL1        0.1258
      3 N         138.4752  138.4543  165.1827 N.ar    1  UNL1       -0.2296
      4 C         138.7917  138.8400  166.5972 C.ar    1  UNL1        0.1008
      5 C         139.4654  140.1490  166.8849 C.ar    1  UNL1        0.0283
      6 C         139.8226  141.0722  165.7579 C.ar    1  UNL1        0.0337
      7 S         140.4865  142.4171  165.7342 S.2     1  UNL1       -0.0863
      8 C         140.5803  142.8625  164.3049 C.ar    1  UNL1        0.0355
      9 C         139.9744  141.7929  163.4453 C.ar    1  UNL1        0.0096
     10 C         139.5061  140.6865  164.3433 C.ar    1  UNL1        0.0377
     11 H         138.0737  138.1327  162.4524 H       1  UNL1        0.1437
     12 H         138.7503  139.5977  161.9014 H       1  UNL1        0.1437
     13 C         139.8574  141.8244  161.9502 C.ar    1  UNL1        0.0007
     14 C         140.9836  141.3176  161.0990 C.ar    1  UNL1        0.0013
     15 C         140.8666  141.3490  159.6038 C.ar    1  UNL1        0.0147
     16 C         139.6234  141.8872  158.9600 C.ar    1  UNL1        0.0516
     17 C         138.4971  142.3940  159.8113 C.ar    1  UNL1        0.0147
     18 C         138.6140  142.3626  161.3064 C.ar    1  UNL1        0.0013
     19 N         139.5063  141.9186  157.4649 N.am    1  UNL1       -0.2681
     20 C         139.0096  140.7114  156.7260 C.2     1  UNL1        0.3082
     21 O         138.6300  139.4728  157.4822 O.2     1  UNL1       -0.2522
     22 N         138.8925  140.7429  155.2309 N.am    1  UNL1       -0.2680
     23 H         139.7555  142.7315  156.9686 H       1  UNL1        0.1564
     24 H         139.1417  141.5558  154.7346 H       1  UNL1        0.1564
     25 C         138.3958  139.5356  154.4919 C.ar    1  UNL1        0.0538
     26 C         136.9455  139.4249  154.1255 C.ar    1  UNL1        0.0149
     27 C         136.4487  138.2177  153.3866 C.ar    1  UNL1        0.0036
     28 C         137.4023  137.1214  153.0141 C.ar    1  UNL1        0.0297
     29 C         138.8527  137.2322  153.3805 C.ar    1  UNL1        0.1414
     30 F         139.8062  136.1359  153.0080 F       1  UNL1       -0.2041
     31 C         139.3494  138.4393  154.1194 C.ar    1  UNL1        0.0443
     32 C         139.7819  140.5347  168.2995 C.ar    1  UNL1        0.0416
     33 C         138.9106  140.2907  169.4959 C.ar    1  UNL1        0.1217
     34 N         139.6155  140.8373  170.7018 N.ar    1  UNL1       -0.1676
     35 N         140.9225  141.4191  170.2507 N.ar    1  UNL1       -0.2468
     36 C         141.0253  141.2321  168.7660 C.ar    1  UNL1        0.0968
     37 C         141.9468  142.0731  171.1300 C.3     1  UNL1        0.1591
     38 C         142.9742  142.9880  170.5322 C.3     1  UNL1        0.1635
     39 O         143.5121  144.1367  171.3328 O.3     1  UNL1       -0.3799
     40 H         142.8018  144.7763  171.4982 H       1  UNL1        0.2105
@<TRIPOS>BOND
     1     1     2    1
     2     2     3   ar
     3     3     4   ar
     4     4     5   ar
     5     5    32    1
     6    32    33   ar
     7    33    34   ar
     8    34    35   ar
     9    35    37    1
    10    37    38    1
    11    38    39    1
    12    35    36   ar
    13     5     6   ar
    14     6     7   ar
    15     7     8   ar
    16     8     9   ar
    17     9    13    1
    18    13    14   ar
    19    14    15   ar
    20    15    16   ar
    21    16    19    1
    22    19    20   am
    23    20    21    2
    24    20    22   am
    25    22    25    1
    26    25    26   ar
    27    26    27   ar
    28    27    28   ar
    29    28    29   ar
    30    29    30    1
    31    29    31   ar
    32    16    17   ar
    33    17    18   ar
    34     9    10   ar
    35    10     2   ar
    36    36    32   ar
    37    10     6   ar
    38    18    13   ar
    39    31    25   ar
    40     1    11    1
    41     1    12    1
    42    39    40    1
    43    19    23    1
    44    22    24    1
@<TRIPOS>MOLECULE
*****
 40 44 0 0 0
SMALL
GASTEIGER

@<TRIPOS>ATOM
      1 N         145.1555  143.0855  162.0230 N.pl3   1  UNL1       -0.3426
      2 C         144.3377  142.7968  163.2469 C.ar    1  UNL1        0.1258
      3 N         144.8498  143.1896  164.6010 N.ar    1  UNL1       -0.2296
      4 C         144.0321  142.9009  165.8248 C.ar    1  UNL1        0.1008
      5 C         142.7022  142.2193  165.6947 C.ar    1  UNL1        0.0283
      6 C         142.1901  141.8265  164.3407 C.ar    1  UNL1        0.0337
      7 S         140.9260  141.1473  163.9040 S.2     1  UNL1       -0.0863
      8 C         140.9625  141.0163  162.4101 C.ar    1  UNL1        0.0355
      9 C         142.2491  141.6145  161.9236 C.ar    1  UNL1        0.0096
     10 C         143.0079  142.1152  163.1168 C.ar    1  UNL1        0.0377
     11 H         146.0283  143.5329  162.1085 H       1  UNL1        0.1437
     12 H         144.8194  142.8277  161.1343 H       1  UNL1        0.1437
     13 C         142.6982  141.6974  160.4948 C.ar    1  UNL1        0.0007
     14 C         143.3582  140.5167  159.8464 C.ar    1  UNL1        0.0013
     15 C         143.8073  140.5996  158.4176 C.ar    1  UNL1        0.0147
     16 C         143.5964  141.8631  157.6372 C.ar    1  UNL1        0.0516
     17 C         142.9363  143.0438  158.2857 C.ar    1  UNL1        0.0147
     18 C         142.4873  142.9609  159.7144 C.ar    1  UNL1        0.0013
     19 N         144.0454  141.9460  156.2084 N.am    1  UNL1       -0.2681
     20 C         145.4913  142.1860  155.8895 C.2     1  UNL1        0.3082
     21 O         146.4882  142.3430  156.9993 O.2     1  UNL1       -0.2522
     22 N         145.9404  142.2689  154.4607 N.am    1  UNL1       -0.2680
     23 H         143.3912  141.8429  155.4800 H       1  UNL1        0.1564
     24 H         145.2861  142.1657  153.7323 H       1  UNL1        0.1564
     25 C         147.3864  142.5089  154.1416 C.ar    1  UNL1        0.0538
     26 C         147.7839  143.6889  153.3053 C.ar    1  UNL1        0.0149
     27 C         149.2299  143.9289  152.9862 C.ar    1  UNL1        0.0036
     28 C         150.2781  142.9889  153.5036 C.ar    1  UNL1        0.0297
     29 C         149.8804  141.8089  154.3399 C.ar    1  UNL1        0.1414
     30 F         150.9287  140.8690  154.8572 F       1  UNL1       -0.2041
     31 C         148.4346  141.5689  154.6589 C.ar    1  UNL1        0.0443
     32 C         141.8845  141.9306  166.9187 C.ar    1  UNL1        0.0416
     33 C         140.6817  142.7007  167.3774 C.ar    1  UNL1        0.1217
     34 N         140.1799  142.0671  168.6410 N.ar    1  UNL1       -0.1676
     35 N         141.0726  140.9055  168.9632 N.ar    1  UNL1       -0.2468
     36 C         142.1260  140.8211  167.8988 C.ar    1  UNL1        0.0968
     37 C         140.9358  139.9890  170.1429 C.3     1  UNL1        0.1591
     38 C         140.5534  140.5435  171.4831 C.3     1  UNL1        0.1635
     39 O         140.6736  142.0149  171.7480 O.3     1  UNL1       -0.3799
     40 H         141.6086  142.2720  171.7268 H       1  UNL1        0.2105
@<TRIPOS>BOND
     1     1     2    1
     2     2     3   ar
     3     3     4   ar
     4     4     5   ar
     5     5    32    1
     6    32    33   ar
     7    33    34   ar
     8    34    35   ar
     9    35    37    1
    10    37    38    1
    11    38    39    1
    12    35    36   ar
    13     5     6   ar
    14     6     7   ar
    15     7     8   ar
    16     8     9   ar
    17     9    13    1
    18    13    14   ar
    19    14    15   ar
    20    15    16   ar
    21    16    19    1
    22    19    20   am
    23    20    21    2
    24    20    22   am
    25    22    25    1
    26    25    26   ar
    27    26    27   ar
    28    27    28   ar
    29    28    29   ar
    30    29    30    1
    31    29    31   ar
    32    16    17   ar
    33    17    18   ar
    34     9    10   ar
    35    10     2   ar
    36    36    32   ar
    37    10     6   ar
    38    18    13   ar
    39    31    25   ar
    40     1    11    1
    41     1    12    1
    42    39    40    1
    43    19    23    1
    44    22    24    1
@<TRIPOS>MOLECULE
*****
 40 44 0 0 0
SMALL
GASTEIGER

@<TRIPOS>ATOM
      1 N         139.5655  141.4009  160.7010 N.pl3   1  UNL1       -0.3426
      2 C         139.6497  141.3332  162.1972 C.ar    1  UNL1        0.1258
      3 N         138.4007  141.1719  163.0121 N.ar    1  UNL1       -0.2296
      4 C         138.4849  141.1042  164.5081 C.ar    1  UNL1        0.1008
      5 C         139.8181  141.1978  165.1894 C.ar    1  UNL1        0.0283
      6 C         141.0670  141.3591  164.3744 C.ar    1  UNL1        0.0337
      7 S         142.5108  141.4782  164.7634 S.2     1  UNL1       -0.0863
      8 C         143.3189  141.6195  163.5076 C.ar    1  UNL1        0.0355
      9 C         142.3746  141.5878  162.3426 C.ar    1  UNL1        0.0096
     10 C         140.9828  141.4268  162.8783 C.ar    1  UNL1        0.0377
     11 H         138.6905  141.3395  160.2540 H       1  UNL1        0.1437
     12 H         140.3852  141.5068  160.1662 H       1  UNL1        0.1437
     13 C         142.7552  141.6976  160.8959 C.ar    1  UNL1        0.0007
     14 C         143.0493  140.4596  160.1016 C.ar    1  UNL1        0.0013
     15 C         143.4300  140.5695  158.6548 C.ar    1  UNL1        0.0147
     16 C         143.5166  141.9173  158.0024 C.ar    1  UNL1        0.0516
     17 C         143.2225  143.1553  158.7967 C.ar    1  UNL1        0.0147
     18 C         142.8418  143.0455  160.2434 C.ar    1  UNL1        0.0013
     19 N         143.8972  142.0271  156.5557 N.am    1  UNL1       -0.2681
     20 C         145.3315  142.2400  156.1717 C.2     1  UNL1        0.3082
     21 O         146.3851  142.3431  157.2344 O.2     1  UNL1       -0.2522
     22 N         145.7122  142.3499  154.7249 N.am    1  UNL1       -0.2680
     23 H         143.2057  141.9595  155.8582 H       1  UNL1        0.1564
     24 H         145.0206  142.2823  154.0275 H       1  UNL1        0.1564
     25 C         147.1465  142.5628  154.3408 C.ar    1  UNL1        0.0538
     26 C         147.5205  143.7031  153.4409 C.ar    1  UNL1        0.0149
     27 C         148.9549  143.9160  153.0568 C.ar    1  UNL1        0.0036
     28 C         150.0150  142.9887  153.5727 C.ar    1  UNL1        0.0297
     29 C         149.6409  141.8485  154.4727 C.ar    1  UNL1        0.1414
     30 F         150.7011  140.9213  154.9885 F       1  UNL1       -0.2041
     31 C         148.2067  141.6355  154.8568 C.ar    1  UNL1        0.0443
     32 C         139.9022  141.1301  166.6855 C.ar    1  UNL1        0.0416
     33 C         139.5324  139.9519  167.5370 C.ar    1  UNL1        0.1217
     34 N         139.7725  140.3224  168.9705 N.ar    1  UNL1       -0.1676
     35 N         140.2907  141.7296  169.0050 N.ar    1  UNL1       -0.2468
     36 C         140.3708  142.2288  167.5928 C.ar    1  UNL1        0.0968
     37 C         140.6634  142.5021  170.2356 C.3     1  UNL1        0.1591
     38 C         141.1349  141.7779  171.4617 C.3     1  UNL1        0.1635
     39 O         140.5229  140.4609  171.8368 O.3     1  UNL1       -0.3799
     40 H         139.5918  140.5931  172.0744 H       1  UNL1        0.2105
@<TRIPOS>BOND
     1     1     2    1
     2     2     3   ar
     3     3     4   ar
     4     4     5   ar
     5     5    32    1
     6    32    33   ar
     7    33    34   ar
     8    34    35   ar
     9    35    37    1
    10    37    38    1
    11    38    39    1
    12    35    36   ar
    13     5     6   ar
    14     6     7   ar
    15     7     8   ar
    16     8     9   ar
    17     9    13    1
    18    13    14   ar
    19    14    15   ar
    20    15    16   ar
    21    16    19    1
    22    19    20   am
    23    20    21    2
    24    20    22   am
    25    22    25    1
    26    25    26   ar
    27    26    27   ar
    28    27    28   ar
    29    28    29   ar
    30    29    30    1
    31    29    31   ar
    32    16    17   ar
    33    17    18   ar
    34     9    10   ar
    35    10     2   ar
    36    36    32   ar
    37    10     6   ar
    38    18    13   ar
    39    31    25   ar
    40     1    11    1
    41     1    12    1
    42    39    40    1
    43    19    23    1
    44    22    24    1
@<TRIPOS>MOLECULE
*****
 40 44 0 0 0
SMALL
GASTEIGER

@<TRIPOS>ATOM
      1 N         143.1922  136.4528  159.7192 N.pl3   1  UNL1       -0.3426
      2 C         143.2596  137.8595  160.2357 C.ar    1  UNL1        0.1258
      3 N         143.6595  138.1178  161.6582 N.ar    1  UNL1       -0.2296
      4 C         143.7269  139.5243  162.1747 C.ar    1  UNL1        0.1008
      5 C         143.3944  140.6728  161.2688 C.ar    1  UNL1        0.0283
      6 C         142.9945  140.4145  159.8464 C.ar    1  UNL1        0.0337
      7 S         142.6132  141.3379  158.7275 S.2     1  UNL1       -0.0863
      8 C         142.3101  140.5020  157.5195 C.ar    1  UNL1        0.0355
      9 C         142.5041  139.0619  157.8917 C.ar    1  UNL1        0.0096
     10 C         142.9271  139.0078  159.3298 C.ar    1  UNL1        0.0377
     11 H         143.4105  135.6991  160.3138 H       1  UNL1        0.1437
     12 H         142.9298  136.2833  158.7856 H       1  UNL1        0.1437
     13 C         142.3094  137.8830  156.9850 C.ar    1  UNL1        0.0007
     14 C         143.4936  137.2398  156.3263 C.ar    1  UNL1        0.0013
     15 C         143.2989  136.0608  155.4195 C.ar    1  UNL1        0.0147
     16 C         141.9200  135.5250  155.1716 C.ar    1  UNL1        0.0516
     17 C         140.7358  136.1683  155.8304 C.ar    1  UNL1        0.0147
     18 C         140.9304  137.3472  156.7371 C.ar    1  UNL1        0.0013
     19 N         141.7252  134.3461  154.2649 N.am    1  UNL1       -0.2681
     20 C         141.6678  132.9609  154.8376 C.2     1  UNL1        0.3082
     21 O         141.8052  132.7547  156.3170 O.2     1  UNL1       -0.2522
     22 N         141.4731  131.7820  153.9309 N.am    1  UNL1       -0.2680
     23 H         141.6351  134.4814  153.2939 H       1  UNL1        0.1564
     24 H         141.3829  131.9173  152.9599 H       1  UNL1        0.1564
     25 C         141.4156  130.3967  154.5036 C.ar    1  UNL1        0.0538
     26 C         142.6851  129.6596  154.8121 C.ar    1  UNL1        0.0149
     27 C         142.6277  128.2744  155.3849 C.ar    1  UNL1        0.0036
     28 C         141.3009  127.6264  155.6490 C.ar    1  UNL1        0.0297
     29 C         140.0315  128.3636  155.3404 C.ar    1  UNL1        0.1414
     30 F         138.7048  127.7156  155.6045 F       1  UNL1       -0.2041
     31 C         140.0889  129.7487  154.7677 C.ar    1  UNL1        0.0443
     32 C         143.4618  142.0794  161.7854 C.ar    1  UNL1        0.0416
     33 C         144.6691  142.9694  161.7649 C.ar    1  UNL1        0.1217
     34 N         144.2871  144.2830  162.3801 N.ar    1  UNL1       -0.1676
     35 N         142.8437  144.2049  162.7808 N.ar    1  UNL1       -0.2468
     36 C         142.3336  142.8430  162.4133 C.ar    1  UNL1        0.0968
     37 C         142.0498  145.2970  163.4343 C.3     1  UNL1        0.1591
     38 C         140.6140  145.5099  163.0558 C.3     1  UNL1        0.1635
     39 O         140.2264  146.6929  162.2192 O.3     1  UNL1       -0.3799
     40 H         140.3851  147.5087  162.7196 H       1  UNL1        0.2105
@<TRIPOS>BOND
     1     1     2    1
     2     2     3   ar
     3     3     4   ar
     4     4     5   ar
     5     5    32    1
     6    32    33   ar
     7    33    34   ar
     8    34    35   ar
     9    35    37    1
    10    37    38    1
    11    38    39    1
    12    35    36   ar
    13     5     6   ar
    14     6     7   ar
    15     7     8   ar
    16     8     9   ar
    17     9    13    1
    18    13    14   ar
    19    14    15   ar
    20    15    16   ar
    21    16    19    1
    22    19    20   am
    23    20    21    2
    24    20    22   am
    25    22    25    1
    26    25    26   ar
    27    26    27   ar
    28    27    28   ar
    29    28    29   ar
    30    29    30    1
    31    29    31   ar
    32    16    17   ar
    33    17    18   ar
    34     9    10   ar
    35    10     2   ar
    36    36    32   ar
    37    10     6   ar
    38    18    13   ar
    39    31    25   ar
    40     1    11    1
    41     1    12    1
    42    39    40    1
    43    19    23    1
    44    22    24    1
