@<TRIPOS>MOLECULE
*****
 36 39 0 0 0
SMALL
GASTEIGER

@<TRIPOS>ATOM
      1 C         139.5552  139.8667  168.0054 C.ar    1  UNL1        0.1345
      2 C         140.6303  140.5459  167.2099 C.ar    1  UNL1        0.0489
      3 C         141.6895  141.3450  167.9096 C.ar    1  UNL1        0.0533
      4 C         141.6736  141.4649  169.4047 C.ar    1  UNL1        0.0854
      5 C         140.5985  140.7856  170.2002 C.ar    1  UNL1        0.1060
      6 N         139.5393  139.9866  169.5006 N.ar    1  UNL1       -0.2288
      7 C         142.7329  142.2639  170.1043 C.2     1  UNL1        0.2455
      8 N         142.4573  142.8541  171.4556 N.am    1  UNL1       -0.3252
      9 O         144.0677  142.4729  169.4528 O.2     1  UNL1       -0.2703
     10 H         141.5812  142.7169  171.8833 H       1  UNL1        0.1453
     11 H         143.1525  143.3785  171.9148 H       1  UNL1        0.1453
     12 N         138.4959  139.0677  167.3058 N.pl3   1  UNL1       -0.2821
     13 H         137.8215  138.5784  167.8302 H       1  UNL1        0.1551
     14 C         137.4829  141.3364  162.7422 C.3     1  UNL1        0.0538
     15 C         137.9577  140.1484  163.5253 C.ar    1  UNL1        0.0799
     16 C         138.4007  138.9068  162.8097 C.ar    1  UNL1        0.1137
     17 N         138.8755  137.7188  163.5928 N.ar    1  UNL1       -0.2382
     18 C         138.9073  137.7724  165.0915 C.ar    1  UNL1        0.1332
     19 C         138.4642  139.0140  165.8070 C.ar    1  UNL1        0.1522
     20 N         137.9894  140.2020  165.0239 N.ar    1  UNL1       -0.2317
     21 N         142.7647  142.0242  167.1142 N.pl3   1  UNL1       -0.3337
     22 H         143.6699  142.1180  167.4896 H       1  UNL1        0.1468
     23 C         142.4605  142.5606  165.7467 C.3     1  UNL1        0.0724
     24 C         143.4401  142.3622  164.6283 C.3     1  UNL1        0.0410
     25 C         143.1359  142.8986  163.2608 C.3     1  UNL1        0.0939
     26 N         141.8520  143.6332  163.0119 N.pl3   1  UNL1       -0.2931
     27 C         140.8724  143.8315  164.1304 C.3     1  UNL1        0.0939
     28 C         141.1766  143.2952  165.4978 C.3     1  UNL1        0.0410
     29 C         141.5478  144.1695  161.6445 C.ar    1  UNL1        0.1317
     30 C         140.4719  145.1992  161.4651 C.ar    1  UNL1        0.0350
     31 C         140.1677  145.7356  160.0976 C.ar    1  UNL1        0.0147
     32 C         140.9393  145.2422  158.9097 C.ar    1  UNL1        0.0877
     33 C         142.0151  144.2125  159.0892 C.ar    1  UNL1        0.1105
     34 N         142.3194  143.6761  160.4565 N.ar    1  UNL1       -0.2285
     35 C         140.6350  145.7786  157.5423 C.1     1  UNL1        0.1020
     36 N         140.3308  146.3149  156.1748 N.1     1  UNL1       -0.1908
@<TRIPOS>BOND
     1    14    15    1
     2    15    16   ar
     3    16    17   ar
     4    17    18   ar
     5    18    19   ar
     6    19    12    1
     7    12     1    1
     8     1     2   ar
     9     2     3   ar
    10     3    21    1
    11    21    23    1
    12    23    24    1
    13    24    25    1
    14    25    26    1
    15    26    29    1
    16    29    30   ar
    17    30    31   ar
    18    31    32   ar
    19    32    35    1
    20    35    36    3
    21    32    33   ar
    22    33    34   ar
    23    26    27    1
    24    27    28    1
    25     3     4   ar
    26     4     7    1
    27     7     8   am
    28     7     9    2
    29     4     5   ar
    30     5     6   ar
    31    19    20   ar
    32    20    15   ar
    33     6     1   ar
    34    28    23    1
    35    34    29   ar
    36    12    13    1
    37    21    22    1
    38     8    10    1
    39     8    11    1
@<TRIPOS>MOLECULE
*****
 36 39 0 0 0
SMALL
GASTEIGER

@<TRIPOS>ATOM
      1 C         138.9800  139.5487  167.3470 C.ar    1  UNL1        0.1345
      2 C         139.7694  140.6677  166.7349 C.ar    1  UNL1        0.0489
      3 C         140.2956  141.7749  167.5994 C.ar    1  UNL1        0.0533
      4 C         140.0324  141.7630  169.0761 C.ar    1  UNL1        0.0854
      5 C         139.2430  140.6440  169.6882 C.ar    1  UNL1        0.1060
      6 N         138.7168  139.5369  168.8237 N.ar    1  UNL1       -0.2288
      7 C         140.5585  142.8702  169.9406 C.2     1  UNL1        0.2455
      8 N         141.5065  142.5608  171.0612 N.am    1  UNL1       -0.3252
      9 O         140.1367  144.2867  169.6845 O.2     1  UNL1       -0.2703
     10 H         141.7833  141.6311  171.2293 H       1  UNL1        0.1453
     11 H         141.8518  143.2875  171.6286 H       1  UNL1        0.1453
     12 N         138.4539  138.4416  166.4825 N.pl3   1  UNL1       -0.2821
     13 H         137.8180  137.7877  166.8529 H       1  UNL1        0.1551
     14 C         137.9195  139.7772  161.4895 C.3     1  UNL1        0.0538
     15 C         138.6294  138.9986  162.5571 C.ar    1  UNL1        0.0799
     16 C         139.7820  138.1093  162.1958 C.ar    1  UNL1        0.1137
     17 N         140.4919  137.3307  163.2635 N.ar    1  UNL1       -0.2382
     18 C         140.0492  137.4415  164.6923 C.ar    1  UNL1        0.1332
     19 C         138.8966  138.3308  165.0536 C.ar    1  UNL1        0.1522
     20 N         138.1867  139.1094  163.9860 N.ar    1  UNL1       -0.2317
     21 N         141.0850  142.8939  166.9873 N.pl3   1  UNL1       -0.3337
     22 H         141.6804  143.4410  167.5489 H       1  UNL1        0.1468
     23 C         140.9671  143.1794  165.5194 C.3     1  UNL1        0.0724
     24 C         139.8061  143.9751  165.0009 C.3     1  UNL1        0.0410
     25 C         139.6882  144.2606  163.5330 C.3     1  UNL1        0.0939
     26 N         140.7314  143.7503  162.5836 N.pl3   1  UNL1       -0.2931
     27 C         141.8925  142.9546  163.1021 C.3     1  UNL1        0.0939
     28 C         142.0103  142.6691  164.5700 C.3     1  UNL1        0.0410
     29 C         140.6136  144.0357  161.1158 C.ar    1  UNL1        0.1317
     30 C         139.6297  143.2721  160.2799 C.ar    1  UNL1        0.0350
     31 C         139.5119  143.5575  158.8119 C.ar    1  UNL1        0.0147
     32 C         140.3779  144.6066  158.1800 C.ar    1  UNL1        0.0877
     33 C         141.3618  145.3703  159.0160 C.ar    1  UNL1        0.1105
     34 N         141.4796  145.0849  160.4838 N.ar    1  UNL1       -0.2285
     35 C         140.2601  144.8921  156.7122 C.1     1  UNL1        0.1020
     36 N         140.1422  145.1776  155.2443 N.1     1  UNL1       -0.1908
@<TRIPOS>BOND
     1    14    15    1
     2    15    16   ar
     3    16    17   ar
     4    17    18   ar
     5    18    19   ar
     6    19    12    1
     7    12     1    1
     8     1     2   ar
     9     2     3   ar
    10     3    21    1
    11    21    23    1
    12    23    24    1
    13    24    25    1
    14    25    26    1
    15    26    29    1
    16    29    30   ar
    17    30    31   ar
    18    31    32   ar
    19    32    35    1
    20    35    36    3
    21    32    33   ar
    22    33    34   ar
    23    26    27    1
    24    27    28    1
    25     3     4   ar
    26     4     7    1
    27     7     8   am
    28     7     9    2
    29     4     5   ar
    30     5     6   ar
    31    19    20   ar
    32    20    15   ar
    33     6     1   ar
    34    28    23    1
    35    34    29   ar
    36    12    13    1
    37    21    22    1
    38     8    10    1
    39     8    11    1
@<TRIPOS>MOLECULE
*****
 36 39 0 0 0
SMALL
GASTEIGER

@<TRIPOS>ATOM
      1 C         139.5429  139.8993  168.0552 C.ar    1  UNL1        0.1345
      2 C         140.4100  140.8404  167.2725 C.ar    1  UNL1        0.0489
      3 C         141.4666  141.6436  167.9714 C.ar    1  UNL1        0.0533
      4 C         141.6562  141.5057  169.4530 C.ar    1  UNL1        0.0854
      5 C         140.7891  140.5647  170.2357 C.ar    1  UNL1        0.1060
      6 N         139.7325  139.7615  169.5368 N.ar    1  UNL1       -0.2288
      7 C         142.7128  142.3089  170.1518 C.2     1  UNL1        0.2455
      8 N         142.4864  142.7858  171.5559 N.am    1  UNL1       -0.3252
      9 O         143.9959  142.6352  169.4466 O.2     1  UNL1       -0.2703
     10 H         141.6443  142.5716  172.0187 H       1  UNL1        0.1453
     11 H         143.1799  143.3130  172.0145 H       1  UNL1        0.1453
     12 N         138.4863  139.0961  167.3563 N.pl3   1  UNL1       -0.2821
     13 H         137.8075  138.6133  167.8811 H       1  UNL1        0.1551
     14 C         137.5002  141.3217  162.7656 C.3     1  UNL1        0.0538
     15 C         137.9709  140.1413  163.5627 C.ar    1  UNL1        0.0799
     16 C         138.4192  138.8935  162.8614 C.ar    1  UNL1        0.1137
     17 N         138.8899  137.7131  163.6585 N.ar    1  UNL1       -0.2382
     18 C         138.9122  137.7807  165.1568 C.ar    1  UNL1        0.1332
     19 C         138.4639  139.0285  165.8580 C.ar    1  UNL1        0.1522
     20 N         137.9933  140.2089  165.0609 N.ar    1  UNL1       -0.2317
     21 N         142.3337  142.5846  167.1887 N.pl3   1  UNL1       -0.3337
     22 H         142.7060  143.3865  167.6219 H       1  UNL1        0.1468
     23 C         142.6336  142.3039  165.7460 C.3     1  UNL1        0.0724
     24 C         142.0355  143.1660  164.6741 C.3     1  UNL1        0.0410
     25 C         142.3353  142.8852  163.2314 C.3     1  UNL1        0.0939
     26 N         143.2333  141.7423  162.8607 N.pl3   1  UNL1       -0.2931
     27 C         143.8314  140.8802  163.9326 C.3     1  UNL1        0.0939
     28 C         143.5315  141.1610  165.3752 C.3     1  UNL1        0.0410
     29 C         143.5331  141.4616  161.4180 C.ar    1  UNL1        0.1317
     30 C         143.4164  140.0640  160.8860 C.ar    1  UNL1        0.0350
     31 C         143.7162  139.7831  159.4433 C.ar    1  UNL1        0.0147
     32 C         144.1328  140.8999  158.5327 C.ar    1  UNL1        0.0877
     33 C         144.2496  142.2976  159.0648 C.ar    1  UNL1        0.1105
     34 N         143.9497  142.5784  160.5074 N.ar    1  UNL1       -0.2285
     35 C         144.4327  140.6192  157.0901 C.1     1  UNL1        0.1020
     36 N         144.7325  140.3384  155.6474 N.1     1  UNL1       -0.1908
@<TRIPOS>BOND
     1    14    15    1
     2    15    16   ar
     3    16    17   ar
     4    17    18   ar
     5    18    19   ar
     6    19    12    1
     7    12     1    1
     8     1     2   ar
     9     2     3   ar
    10     3    21    1
    11    21    23    1
    12    23    24    1
    13    24    25    1
    14    25    26    1
    15    26    29    1
    16    29    30   ar
    17    30    31   ar
    18    31    32   ar
    19    32    35    1
    20    35    36    3
    21    32    33   ar
    22    33    34   ar
    23    26    27    1
    24    27    28    1
    25     3     4   ar
    26     4     7    1
    27     7     8   am
    28     7     9    2
    29     4     5   ar
    30     5     6   ar
    31    19    20   ar
    32    20    15   ar
    33     6     1   ar
    34    28    23    1
    35    34    29   ar
    36    12    13    1
    37    21    22    1
    38     8    10    1
    39     8    11    1
@<TRIPOS>MOLECULE
*****
 36 39 0 0 0
SMALL
GASTEIGER

@<TRIPOS>ATOM
      1 C         142.6854  139.7769  167.9195 C.ar    1  UNL1        0.1345
      2 C         141.8176  140.7508  167.1789 C.ar    1  UNL1        0.0489
      3 C         141.0494  141.7952  167.9333 C.ar    1  UNL1        0.0533
      4 C         141.1490  141.8657  169.4283 C.ar    1  UNL1        0.0854
      5 C         142.0168  140.8918  170.1689 C.ar    1  UNL1        0.1060
      6 N         142.7850  139.8475  169.4146 N.ar    1  UNL1       -0.2288
      7 C         140.3809  142.9101  170.1827 C.2     1  UNL1        0.2455
      8 N         139.8576  142.6103  171.5562 N.am    1  UNL1       -0.3252
      9 O         140.1360  144.2543  169.5637 O.2     1  UNL1       -0.2703
     10 H         140.0183  141.7281  171.9625 H       1  UNL1        0.1453
     11 H         139.3534  143.2958  172.0513 H       1  UNL1        0.1453
     12 N         143.4535  138.7325  167.1651 N.pl3   1  UNL1       -0.2821
     13 H         144.0200  138.0908  167.6515 H       1  UNL1        0.1551
     14 C         140.8391  137.3992  162.8770 C.3     1  UNL1        0.0538
     15 C         142.0514  137.9991  163.5255 C.ar    1  UNL1        0.0799
     16 C         143.1687  138.5322  162.6786 C.ar    1  UNL1        0.1137
     17 N         144.3809  139.1321  163.3271 N.ar    1  UNL1       -0.2382
     18 C         144.4759  139.1989  164.8226 C.ar    1  UNL1        0.1332
     19 C         143.3586  138.6658  165.6695 C.ar    1  UNL1        0.1522
     20 N         142.1463  138.0659  165.0210 N.ar    1  UNL1       -0.2317
     21 N         140.1816  142.7691  167.1927 N.pl3   1  UNL1       -0.3337
     22 H         139.8534  143.5793  167.6457 H       1  UNL1        0.1468
     23 C         139.8139  142.5086  165.7620 C.3     1  UNL1        0.0724
     24 C         139.0255  141.2845  165.4012 C.3     1  UNL1        0.0410
     25 C         138.6578  141.0240  163.9704 C.3     1  UNL1        0.0939
     26 N         139.0785  141.9875  162.9005 N.pl3   1  UNL1       -0.2931
     27 C         139.8668  143.2116  163.2614 C.3     1  UNL1        0.0939
     28 C         140.2345  143.4721  164.6921 C.3     1  UNL1        0.0410
     29 C         138.7108  141.7270  161.4699 C.ar    1  UNL1        0.1317
     30 C         138.2555  140.3611  161.0493 C.ar    1  UNL1        0.0350
     31 C         137.8878  140.1006  159.6185 C.ar    1  UNL1        0.0147
     32 C         137.9754  141.2060  158.6084 C.ar    1  UNL1        0.0877
     33 C         138.4306  142.5720  159.0291 C.ar    1  UNL1        0.1105
     34 N         138.7983  142.8325  160.4598 N.ar    1  UNL1       -0.2285
     35 C         137.6077  140.9455  157.1777 C.1     1  UNL1        0.1020
     36 N         137.2400  140.6850  155.7470 N.1     1  UNL1       -0.1908
@<TRIPOS>BOND
     1    14    15    1
     2    15    16   ar
     3    16    17   ar
     4    17    18   ar
     5    18    19   ar
     6    19    12    1
     7    12     1    1
     8     1     2   ar
     9     2     3   ar
    10     3    21    1
    11    21    23    1
    12    23    24    1
    13    24    25    1
    14    25    26    1
    15    26    29    1
    16    29    30   ar
    17    30    31   ar
    18    31    32   ar
    19    32    35    1
    20    35    36    3
    21    32    33   ar
    22    33    34   ar
    23    26    27    1
    24    27    28    1
    25     3     4   ar
    26     4     7    1
    27     7     8   am
    28     7     9    2
    29     4     5   ar
    30     5     6   ar
    31    19    20   ar
    32    20    15   ar
    33     6     1   ar
    34    28    23    1
    35    34    29   ar
    36    12    13    1
    37    21    22    1
    38     8    10    1
    39     8    11    1
@<TRIPOS>MOLECULE
*****
 36 39 0 0 0
SMALL
GASTEIGER

@<TRIPOS>ATOM
      1 C         142.8266  139.0839  167.4662 C.ar    1  UNL1        0.1345
      2 C         141.7286  139.9785  166.9720 C.ar    1  UNL1        0.0489
      3 C         140.7963  140.6316  167.9489 C.ar    1  UNL1        0.0533
      4 C         140.9620  140.3902  169.4200 C.ar    1  UNL1        0.0854
      5 C         142.0599  139.4956  169.9143 C.ar    1  UNL1        0.1060
      6 N         142.9922  138.8425  168.9374 N.ar    1  UNL1       -0.2288
      7 C         140.0297  141.0433  170.3968 C.2     1  UNL1        0.2455
      8 N         140.5631  142.0137  171.4088 N.am    1  UNL1       -0.3252
      9 O         138.5641  140.7261  170.3618 O.2     1  UNL1       -0.2703
     10 H         141.5251  142.2219  171.4318 H       1  UNL1        0.1453
     11 H         139.9512  142.4424  172.0499 H       1  UNL1        0.1453
     12 N         143.7588  138.4308  166.4894 N.pl3   1  UNL1       -0.2821
     13 H         144.3032  137.6596  166.7688 H       1  UNL1        0.1551
     14 C         145.8146  141.7532  163.0637 C.3     1  UNL1        0.0538
     15 C         144.8895  140.6140  163.3740 C.ar    1  UNL1        0.0799
     16 C         144.0673  139.9966  162.2819 C.ar    1  UNL1        0.1137
     17 N         143.1422  138.8573  162.5922 N.ar    1  UNL1       -0.2382
     18 C         143.0394  138.3354  163.9947 C.ar    1  UNL1        0.1332
     19 C         143.8616  138.9527  165.0868 C.ar    1  UNL1        0.1522
     20 N         144.7867  140.0920  164.7765 N.ar    1  UNL1       -0.2317
     21 N         139.6984  141.5262  167.4546 N.pl3   1  UNL1       -0.3337
     22 H         138.9305  141.7303  168.0359 H       1  UNL1        0.1468
     23 C         139.7706  142.1099  166.0747 C.3     1  UNL1        0.0724
     24 C         138.9379  141.5294  164.9703 C.3     1  UNL1        0.0410
     25 C         139.0101  142.1131  163.5904 C.3     1  UNL1        0.0939
     26 N         139.9149  143.2773  163.3149 N.pl3   1  UNL1       -0.2931
     27 C         140.7476  143.8578  164.4193 C.3     1  UNL1        0.0939
     28 C         140.6754  143.2741  165.7992 C.3     1  UNL1        0.0410
     29 C         139.9871  143.8610  161.9350 C.ar    1  UNL1        0.1317
     30 C         140.1581  145.3402  161.7545 C.ar    1  UNL1        0.0350
     31 C         140.2303  145.9240  160.3746 C.ar    1  UNL1        0.0147
     32 C         140.1315  145.0285  159.1753 C.ar    1  UNL1        0.0877
     33 C         139.9605  143.5492  159.3559 C.ar    1  UNL1        0.1105
     34 N         139.8884  142.9655  160.7358 N.ar    1  UNL1       -0.2285
     35 C         140.2037  145.6122  157.7954 C.1     1  UNL1        0.1020
     36 N         140.2759  146.1959  156.4155 N.1     1  UNL1       -0.1908
@<TRIPOS>BOND
     1    14    15    1
     2    15    16   ar
     3    16    17   ar
     4    17    18   ar
     5    18    19   ar
     6    19    12    1
     7    12     1    1
     8     1     2   ar
     9     2     3   ar
    10     3    21    1
    11    21    23    1
    12    23    24    1
    13    24    25    1
    14    25    26    1
    15    26    29    1
    16    29    30   ar
    17    30    31   ar
    18    31    32   ar
    19    32    35    1
    20    35    36    3
    21    32    33   ar
    22    33    34   ar
    23    26    27    1
    24    27    28    1
    25     3     4   ar
    26     4     7    1
    27     7     8   am
    28     7     9    2
    29     4     5   ar
    30     5     6   ar
    31    19    20   ar
    32    20    15   ar
    33     6     1   ar
    34    28    23    1
    35    34    29   ar
    36    12    13    1
    37    21    22    1
    38     8    10    1
    39     8    11    1
@<TRIPOS>MOLECULE
*****
 36 39 0 0 0
SMALL
GASTEIGER

@<TRIPOS>ATOM
      1 C         142.7590  139.1474  166.8481 C.ar    1  UNL1        0.1345
      2 C         141.4204  139.5166  166.2809 C.ar    1  UNL1        0.0489
      3 C         140.3104  139.9438  167.1950 C.ar    1  UNL1        0.0533
      4 C         140.5391  140.0018  168.6763 C.ar    1  UNL1        0.0854
      5 C         141.8778  139.6327  169.2436 C.ar    1  UNL1        0.1060
      6 N         142.9877  139.2055  168.3295 N.ar    1  UNL1       -0.2288
      7 C         139.4292  140.4290  169.5904 C.2     1  UNL1        0.2455
      8 N         139.5935  141.6459  170.4520 N.am    1  UNL1       -0.3252
      9 O         138.1549  139.6394  169.6428 O.2     1  UNL1       -0.2703
     10 H         140.4298  142.1641  170.4175 H       1  UNL1        0.1453
     11 H         138.8650  141.9262  171.0519 H       1  UNL1        0.1453
     12 N         143.8690  138.7203  165.9341 N.pl3   1  UNL1       -0.2821
     13 H         144.4645  137.9810  166.1950 H       1  UNL1        0.1551
     14 C         143.8468  138.6349  160.7387 C.3     1  UNL1        0.0538
     15 C         144.0604  139.3767  162.0248 C.ar    1  UNL1        0.0799
     16 C         144.4766  140.8175  161.9994 C.ar    1  UNL1        0.1137
     17 N         144.6902  141.5593  163.2855 N.ar    1  UNL1       -0.2382
     18 C         144.4877  140.8602  164.5971 C.ar    1  UNL1        0.1332
     19 C         144.0715  139.4194  164.6225 C.ar    1  UNL1        0.1522
     20 N         143.8579  138.6776  163.3364 N.ar    1  UNL1       -0.2317
     21 N         138.9718  140.3130  166.6278 N.pl3   1  UNL1       -0.3337
     22 H         138.1894  140.3870  167.2207 H       1  UNL1        0.1468
     23 C         138.8253  140.5694  165.1571 C.3     1  UNL1        0.0724
     24 C         138.4347  139.4517  164.2361 C.3     1  UNL1        0.0410
     25 C         138.2883  139.7081  162.7654 C.3     1  UNL1        0.0939
     26 N         138.5324  141.0823  162.2158 N.pl3   1  UNL1       -0.2931
     27 C         138.9230  142.2000  163.1368 C.3     1  UNL1        0.0939
     28 C         139.0695  141.9435  164.6074 C.3     1  UNL1        0.0410
     29 C         138.3859  141.3387  160.7452 C.ar    1  UNL1        0.1317
     30 C         137.9750  140.2260  159.8271 C.ar    1  UNL1        0.0350
     31 C         137.8285  140.4824  158.3564 C.ar    1  UNL1        0.0147
     32 C         138.0930  141.8516  157.8039 C.ar    1  UNL1        0.0877
     33 C         138.5040  142.9644  158.7220 C.ar    1  UNL1        0.1105
     34 N         138.6505  142.7079  160.1926 N.ar    1  UNL1       -0.2285
     35 C         137.9465  142.1080  156.3332 C.1     1  UNL1        0.1020
     36 N         137.8001  142.3645  154.8625 N.1     1  UNL1       -0.1908
@<TRIPOS>BOND
     1    14    15    1
     2    15    16   ar
     3    16    17   ar
     4    17    18   ar
     5    18    19   ar
     6    19    12    1
     7    12     1    1
     8     1     2   ar
     9     2     3   ar
    10     3    21    1
    11    21    23    1
    12    23    24    1
    13    24    25    1
    14    25    26    1
    15    26    29    1
    16    29    30   ar
    17    30    31   ar
    18    31    32   ar
    19    32    35    1
    20    35    36    3
    21    32    33   ar
    22    33    34   ar
    23    26    27    1
    24    27    28    1
    25     3     4   ar
    26     4     7    1
    27     7     8   am
    28     7     9    2
    29     4     5   ar
    30     5     6   ar
    31    19    20   ar
    32    20    15   ar
    33     6     1   ar
    34    28    23    1
    35    34    29   ar
    36    12    13    1
    37    21    22    1
    38     8    10    1
    39     8    11    1
@<TRIPOS>MOLECULE
*****
 36 39 0 0 0
SMALL
GASTEIGER

@<TRIPOS>ATOM
      1 C         141.2416  143.3062  158.5741 C.ar    1  UNL1        0.1345
      2 C         142.2025  143.1795  159.7189 C.ar    1  UNL1        0.0489
      3 C         143.6441  142.8588  159.4562 C.ar    1  UNL1        0.0533
      4 C         144.1248  142.6649  158.0486 C.ar    1  UNL1        0.0854
      5 C         143.1639  142.7915  156.9038 C.ar    1  UNL1        0.1060
      6 N         141.7224  143.1122  157.1665 N.ar    1  UNL1       -0.2288
      7 C         145.5664  142.3442  157.7859 C.2     1  UNL1        0.2455
      8 N         145.9293  141.2854  156.7872 N.am    1  UNL1       -0.3252
      9 O         146.6451  143.0823  158.5218 O.2     1  UNL1       -0.2703
     10 H         145.2213  140.8009  156.3042 H       1  UNL1        0.1453
     11 H         146.8754  141.0749  156.6148 H       1  UNL1        0.1453
     12 N         139.8001  143.6269  158.8368 N.pl3   1  UNL1       -0.2821
     13 H         139.3080  144.2196  158.2238 H       1  UNL1        0.1551
     14 C         137.9565  144.1512  163.6665 C.3     1  UNL1        0.0538
     15 C         138.1864  143.3066  162.4484 C.ar    1  UNL1        0.0799
     16 C         137.7245  141.8797  162.4270 C.ar    1  UNL1        0.1137
     17 N         137.9544  141.0352  161.2088 N.ar    1  UNL1       -0.2382
     18 C         138.6463  141.6175  160.0121 C.ar    1  UNL1        0.1332
     19 C         139.1082  143.0444  160.0336 C.ar    1  UNL1        0.1522
     20 N         138.8783  143.8890  161.2517 N.ar    1  UNL1       -0.2317
     21 N         144.6050  142.7322  160.6010 N.pl3   1  UNL1       -0.3337
     22 H         145.5734  142.6903  160.4286 H       1  UNL1        0.1468
     23 C         144.0904  142.6692  162.0086 C.3     1  UNL1        0.0724
     24 C         144.1438  143.8876  162.8819 C.3     1  UNL1        0.0410
     25 C         143.6292  143.8246  164.2895 C.3     1  UNL1        0.0939
     26 N         143.0612  142.5433  164.8238 N.pl3   1  UNL1       -0.2931
     27 C         143.0077  141.3249  163.9504 C.3     1  UNL1        0.0939
     28 C         143.5223  141.3878  162.5429 C.3     1  UNL1        0.0410
     29 C         142.5466  142.4803  166.2313 C.ar    1  UNL1        0.1317
     30 C         141.0705  142.5315  166.4931 C.ar    1  UNL1        0.0350
     31 C         140.5558  142.4685  167.9007 C.ar    1  UNL1        0.0147
     32 C         141.5173  142.3543  169.0464 C.ar    1  UNL1        0.0877
     33 C         142.9934  142.3030  168.7845 C.ar    1  UNL1        0.1105
     34 N         143.5080  142.3660  167.3770 N.ar    1  UNL1       -0.2285
     35 C         141.0027  142.2913  170.4539 C.1     1  UNL1        0.1020
     36 N         140.4880  142.2282  171.8615 N.1     1  UNL1       -0.1908
@<TRIPOS>BOND
     1    14    15    1
     2    15    16   ar
     3    16    17   ar
     4    17    18   ar
     5    18    19   ar
     6    19    12    1
     7    12     1    1
     8     1     2   ar
     9     2     3   ar
    10     3    21    1
    11    21    23    1
    12    23    24    1
    13    24    25    1
    14    25    26    1
    15    26    29    1
    16    29    30   ar
    17    30    31   ar
    18    31    32   ar
    19    32    35    1
    20    35    36    3
    21    32    33   ar
    22    33    34   ar
    23    26    27    1
    24    27    28    1
    25     3     4   ar
    26     4     7    1
    27     7     8   am
    28     7     9    2
    29     4     5   ar
    30     5     6   ar
    31    19    20   ar
    32    20    15   ar
    33     6     1   ar
    34    28    23    1
    35    34    29   ar
    36    12    13    1
    37    21    22    1
    38     8    10    1
    39     8    11    1
@<TRIPOS>MOLECULE
*****
 36 39 0 0 0
SMALL
GASTEIGER

@<TRIPOS>ATOM
      1 C         141.5055  143.3814  158.7031 C.ar    1  UNL1        0.1345
      2 C         140.5174  142.8007  159.6708 C.ar    1  UNL1        0.0489
      3 C         139.1918  142.2996  159.1790 C.ar    1  UNL1        0.0533
      4 C         138.8544  142.3791  157.7197 C.ar    1  UNL1        0.0854
      5 C         139.8425  142.9598  156.7520 C.ar    1  UNL1        0.1060
      6 N         141.1680  143.4609  157.2437 N.ar    1  UNL1       -0.2288
      7 C         137.5289  141.8780  157.2280 C.2     1  UNL1        0.2455
      8 N         136.6505  142.7686  156.4001 N.am    1  UNL1       -0.3252
      9 O         137.0816  140.4862  157.5642 O.2     1  UNL1       -0.2703
     10 H         136.9440  143.6820  156.1795 H       1  UNL1        0.1453
     11 H         135.7805  142.4397  156.0774 H       1  UNL1        0.1453
     12 N         142.8310  143.8826  159.1948 N.pl3   1  UNL1       -0.2821
     13 H         143.3095  144.5820  158.6937 H       1  UNL1        0.1551
     14 C         143.9238  144.3313  164.2549 C.3     1  UNL1        0.0538
     15 C         143.9740  143.5425  162.9800 C.ar    1  UNL1        0.0799
     16 C         144.6206  142.1892  162.9604 C.ar    1  UNL1        0.1137
     17 N         144.6708  141.4004  161.6855 N.ar    1  UNL1       -0.2382
     18 C         144.0742  141.9648  160.4304 C.ar    1  UNL1        0.1332
     19 C         143.4276  143.3181  160.4500 C.ar    1  UNL1        0.1522
     20 N         143.3774  144.1069  161.7249 N.ar    1  UNL1       -0.2317
     21 N         138.2036  141.7189  160.1467 N.pl3   1  UNL1       -0.3337
     22 H         137.3357  141.3854  159.8233 H       1  UNL1        0.1468
     23 C         138.5381  141.6463  161.6072 C.3     1  UNL1        0.0724
     24 C         138.0071  142.6845  162.5507 C.3     1  UNL1        0.0410
     25 C         138.3415  142.6120  164.0112 C.3     1  UNL1        0.0939
     26 N         139.2069  141.5012  164.5282 N.pl3   1  UNL1       -0.2931
     27 C         139.7379  140.4630  163.5846 C.3     1  UNL1        0.0939
     28 C         139.4035  140.5356  162.1242 C.3     1  UNL1        0.0410
     29 C         139.5413  141.4286  165.9886 C.ar    1  UNL1        0.1317
     30 C         140.2215  142.5844  166.6605 C.ar    1  UNL1        0.0350
     31 C         140.5560  142.5118  168.1210 C.ar    1  UNL1        0.0147
     32 C         140.2101  141.2835  168.9095 C.ar    1  UNL1        0.0877
     33 C         139.5299  140.1278  168.2374 C.ar    1  UNL1        0.1105
     34 N         139.1955  140.2003  166.7770 N.ar    1  UNL1       -0.2285
     35 C         140.5446  141.2109  170.3699 C.1     1  UNL1        0.1020
     36 N         140.8789  141.1384  171.8304 N.1     1  UNL1       -0.1908
@<TRIPOS>BOND
     1    14    15    1
     2    15    16   ar
     3    16    17   ar
     4    17    18   ar
     5    18    19   ar
     6    19    12    1
     7    12     1    1
     8     1     2   ar
     9     2     3   ar
    10     3    21    1
    11    21    23    1
    12    23    24    1
    13    24    25    1
    14    25    26    1
    15    26    29    1
    16    29    30   ar
    17    30    31   ar
    18    31    32   ar
    19    32    35    1
    20    35    36    3
    21    32    33   ar
    22    33    34   ar
    23    26    27    1
    24    27    28    1
    25     3     4   ar
    26     4     7    1
    27     7     8   am
    28     7     9    2
    29     4     5   ar
    30     5     6   ar
    31    19    20   ar
    32    20    15   ar
    33     6     1   ar
    34    28    23    1
    35    34    29   ar
    36    12    13    1
    37    21    22    1
    38     8    10    1
    39     8    11    1
@<TRIPOS>MOLECULE
*****
 36 39 0 0 0
SMALL
GASTEIGER

@<TRIPOS>ATOM
      1 C         139.1291  141.8199  158.5384 C.ar    1  UNL1        0.1345
      2 C         139.4101  140.7213  159.5203 C.ar    1  UNL1        0.0489
      3 C         139.7361  139.3419  159.0294 C.ar    1  UNL1        0.0533
      4 C         139.7811  139.0611  157.5566 C.ar    1  UNL1        0.0854
      5 C         139.5001  140.1597  156.5747 C.ar    1  UNL1        0.1060
      6 N         139.1741  141.5391  157.0656 N.ar    1  UNL1       -0.2288
      7 C         140.1071  137.6818  157.0657 C.2     1  UNL1        0.2455
      8 N         139.0727  136.8840  156.3284 N.am    1  UNL1       -0.3252
      9 O         141.4676  137.1000  157.3122 O.2     1  UNL1       -0.2703
     10 H         138.1797  137.2658  156.1666 H       1  UNL1        0.1453
     11 H         139.2866  135.9787  156.0062 H       1  UNL1        0.1453
     12 N         138.8031  143.1993  159.0293 N.pl3   1  UNL1       -0.2821
     13 H         138.2656  143.8063  158.4707 H       1  UNL1        0.1551
     14 C         137.9519  144.0496  164.0842 C.3     1  UNL1        0.0538
     15 C         138.8703  144.0790  162.8986 C.ar    1  UNL1        0.0799
     16 C         140.2814  144.5629  163.0548 C.ar    1  UNL1        0.1137
     17 N         141.1998  144.5923  161.8692 N.ar    1  UNL1       -0.2382
     18 C         140.7070  144.1378  160.5273 C.ar    1  UNL1        0.1332
     19 C         139.2959  143.6539  160.3711 C.ar    1  UNL1        0.1522
     20 N         138.3775  143.6245  161.5568 N.ar    1  UNL1       -0.2317
     21 N         140.0172  138.2433  160.0113 N.pl3   1  UNL1       -0.3337
     22 H         140.1551  137.3220  159.6929 H       1  UNL1        0.1468
     23 C         140.0881  138.5486  161.4782 C.3     1  UNL1        0.0724
     24 C         138.8688  138.3895  162.3372 C.3     1  UNL1        0.0410
     25 C         138.9397  138.6948  163.8041 C.3     1  UNL1        0.0939
     26 N         140.2300  139.1591  164.4120 N.pl3   1  UNL1       -0.2931
     27 C         141.4494  139.3181  163.5530 C.3     1  UNL1        0.0939
     28 C         141.3784  139.0129  162.0861 C.3     1  UNL1        0.0410
     29 C         140.3010  139.4643  165.8789 C.ar    1  UNL1        0.1317
     30 C         139.0399  139.5805  166.6826 C.ar    1  UNL1        0.0350
     31 C         139.1109  139.8858  168.1496 C.ar    1  UNL1        0.0147
     32 C         140.4430  140.0748  168.8127 C.ar    1  UNL1        0.0877
     33 C         141.7041  139.9586  168.0089 C.ar    1  UNL1        0.1105
     34 N         141.6331  139.6533  166.5420 N.ar    1  UNL1       -0.2285
     35 C         140.5140  140.3800  170.2796 C.1     1  UNL1        0.1020
     36 N         140.5850  140.6853  171.7465 N.1     1  UNL1       -0.1908
@<TRIPOS>BOND
     1    14    15    1
     2    15    16   ar
     3    16    17   ar
     4    17    18   ar
     5    18    19   ar
     6    19    12    1
     7    12     1    1
     8     1     2   ar
     9     2     3   ar
    10     3    21    1
    11    21    23    1
    12    23    24    1
    13    24    25    1
    14    25    26    1
    15    26    29    1
    16    29    30   ar
    17    30    31   ar
    18    31    32   ar
    19    32    35    1
    20    35    36    3
    21    32    33   ar
    22    33    34   ar
    23    26    27    1
    24    27    28    1
    25     3     4   ar
    26     4     7    1
    27     7     8   am
    28     7     9    2
    29     4     5   ar
    30     5     6   ar
    31    19    20   ar
    32    20    15   ar
    33     6     1   ar
    34    28    23    1
    35    34    29   ar
    36    12    13    1
    37    21    22    1
    38     8    10    1
    39     8    11    1
