@<TRIPOS>MOLECULE
*****
 35 39 0 0 0
SMALL
GASTEIGER

@<TRIPOS>ATOM
      1 O         141.7272  139.4388  159.2360 O.2     1  UNL1       -0.2733
      2 C         142.4506  138.1455  159.0033 C.2     1  UNL1        0.2425
      3 N         142.9386  137.3387  160.1698 N.am    1  UNL1       -0.3018
      4 H         143.4134  136.4898  160.0170 H       1  UNL1        0.1495
      5 C         142.7032  137.8251  161.5690 C.3     1  UNL1        0.1035
      6 C         143.4701  138.6726  162.5405 C.3     1  UNL1        0.0933
      7 N         142.3703  138.5130  163.5479 N.3     1  UNL1       -0.2711
      8 C         141.6034  137.6655  162.5766 C.3     1  UNL1        0.0933
      9 C         142.1349  138.9995  164.9472 C.3     1  UNL1        0.0576
     10 C         140.9341  139.8438  165.2557 C.3     1  UNL1        0.0163
     11 C         140.6987  140.3302  166.6550 C.3     1  UNL1        0.0063
     12 C         141.6642  139.9724  167.7458 C.3     1  UNL1        0.0301
     13 C         142.8651  139.1281  167.4372 C.3     1  UNL1        0.0063
     14 C         143.1004  138.6417  166.0380 C.3     1  UNL1        0.0163
     15 C         141.4290  140.4588  169.1450 C.ar    1  UNL1        0.0275
     16 C         140.3134  140.0303  170.0517 C.ar    1  UNL1        0.1016
     17 N         140.4631  140.7658  171.3504 N.ar    1  UNL1       -0.2351
     18 C         141.6711  141.6490  171.2464 C.ar    1  UNL1        0.1342
     19 S         142.2681  141.4592  169.8835 S.2     1  UNL1       -0.0688
     20 C         142.6859  137.6591  157.6040 C.3     1  UNL1        0.1747
     21 N         143.2682  136.2963  157.3717 N.pl3   1  UNL1       -0.3080
     22 H         144.1349  136.0565  157.7724 H       1  UNL1        0.1487
     23 C         142.5299  135.2989  156.5289 C.ar    1  UNL1        0.1708
     24 N         141.4634  135.6132  155.5221 N.ar    1  UNL1       -0.0621
     25 O         141.0029  134.3207  154.9160 O.2     1  UNL1       -0.3522
     26 C         141.7848  133.2076  155.5482 C.ar    1  UNL1        0.1781
     27 C         141.7593  131.7217  155.3450 C.ar    1  UNL1        0.0402
     28 C         142.6776  130.8404  156.1387 C.ar    1  UNL1        0.0071
     29 C         143.6214  131.4450  157.1355 C.ar    1  UNL1        0.0717
     30 C         143.6468  132.9309  157.3388 C.ar    1  UNL1        0.0099
     31 C         142.7285  133.8122  156.5451 C.ar    1  UNL1        0.0717
     32 C         144.5397  130.5636  157.9292 C.3     1  UNL1        0.4186
     33 F         145.4580  129.6822  158.7229 F       1  UNL1       -0.1659
     34 F         143.7468  129.3609  157.5111 F       1  UNL1       -0.1659
     35 F         145.3326  131.7662  158.3473 F       1  UNL1       -0.1659
@<TRIPOS>BOND
     1     1     2    2
     2     2    20    1
     3    20    21    1
     4    21    23    1
     5    23    24   ar
     6    24    25   ar
     7    25    26   ar
     8    26    27   ar
     9    27    28   ar
    10    28    29   ar
    11    29    32    1
    12    32    33    1
    13    32    34    1
    14    32    35    1
    15    29    30   ar
    16    30    31   ar
    17     2     3   am
    18     3     5    1
    19     5     6    1
    20     6     7    1
    21     9     7    1
    22     9    10    1
    23    10    11    1
    24    11    12    1
    25    12    15    1
    26    15    16   ar
    27    16    17   ar
    28    17    18   ar
    29    18    19   ar
    30    12    13    1
    31    13    14    1
    32     7     8    1
    33    31    23   ar
    34     8     5    1
    35    31    26   ar
    36    14     9    1
    37    19    15   ar
    38    21    22    1
    39     3     4    1
@<TRIPOS>MOLECULE
*****
 35 39 0 0 0
SMALL
GASTEIGER

@<TRIPOS>ATOM
      1 O         141.9004  139.2555  158.9947 O.2     1  UNL1       -0.2733
      2 C         142.5116  137.8962  158.8247 C.2     1  UNL1        0.2425
      3 N         143.0319  137.1531  160.0193 N.am    1  UNL1       -0.3018
      4 H         143.4330  136.2610  159.9077 H       1  UNL1        0.1495
      5 C         142.9410  137.7692  161.3839 C.3     1  UNL1        0.1035
      6 C         143.8803  138.5373  162.2656 C.3     1  UNL1        0.0933
      7 N         142.8122  138.6405  163.3137 N.3     1  UNL1       -0.2711
      8 C         141.8728  137.8725  162.4320 C.3     1  UNL1        0.0933
      9 C         142.7213  139.2567  164.6783 C.3     1  UNL1        0.0576
     10 C         143.0378  138.4369  165.8940 C.3     1  UNL1        0.0163
     11 C         142.9469  139.0531  167.2586 C.3     1  UNL1        0.0063
     12 C         142.5394  140.4890  167.4075 C.3     1  UNL1        0.0301
     13 C         142.2229  141.3087  166.1918 C.3     1  UNL1        0.0063
     14 C         142.3139  140.6926  164.8273 C.3     1  UNL1        0.0163
     15 C         142.4485  141.1052  168.7720 C.ar    1  UNL1        0.0275
     16 C         143.0685  142.4035  169.1964 C.ar    1  UNL1        0.1016
     17 N         142.7247  142.6319  170.6385 N.ar    1  UNL1       -0.2351
     18 C         141.8921  141.4749  171.1054 C.ar    1  UNL1        0.1342
     19 S         141.7213  140.5313  169.9519 S.2     1  UNL1       -0.0688
     20 C         142.6026  137.2801  157.4601 C.3     1  UNL1        0.1747
     21 N         141.3680  136.7505  156.7925 N.pl3   1  UNL1       -0.3080
     22 H         140.4807  137.0739  157.0707 H       1  UNL1        0.1487
     23 C         141.4855  135.7283  155.7011 C.ar    1  UNL1        0.1708
     24 N         140.7505  135.7461  154.3936 N.ar    1  UNL1       -0.0621
     25 O         141.1693  134.5375  153.6100 O.2     1  UNL1       -0.3522
     26 C         142.1631  133.7728  154.4332 C.ar    1  UNL1        0.1781
     27 C         142.9153  132.5015  154.1729 C.ar    1  UNL1        0.0402
     28 C         143.8629  131.9660  155.2051 C.ar    1  UNL1        0.0071
     29 C         144.0583  132.7020  156.4974 C.ar    1  UNL1        0.0717
     30 C         143.3061  133.9733  156.7577 C.ar    1  UNL1        0.0099
     31 C         142.3585  134.5087  155.7256 C.ar    1  UNL1        0.0717
     32 C         145.0060  132.1665  157.5296 C.3     1  UNL1        0.4186
     33 F         145.9536  131.6311  158.5617 F       1  UNL1       -0.1659
     34 F         145.2691  130.9683  156.6664 F       1  UNL1       -0.1659
     35 F         144.7429  133.3647  158.3927 F       1  UNL1       -0.1659
@<TRIPOS>BOND
     1     1     2    2
     2     2    20    1
     3    20    21    1
     4    21    23    1
     5    23    24   ar
     6    24    25   ar
     7    25    26   ar
     8    26    27   ar
     9    27    28   ar
    10    28    29   ar
    11    29    32    1
    12    32    33    1
    13    32    34    1
    14    32    35    1
    15    29    30   ar
    16    30    31   ar
    17     2     3   am
    18     3     5    1
    19     5     6    1
    20     6     7    1
    21     9     7    1
    22     9    10    1
    23    10    11    1
    24    11    12    1
    25    12    15    1
    26    15    16   ar
    27    16    17   ar
    28    17    18   ar
    29    18    19   ar
    30    12    13    1
    31    13    14    1
    32     7     8    1
    33    31    23   ar
    34     8     5    1
    35    31    26   ar
    36    14     9    1
    37    19    15   ar
    38    21    22    1
    39     3     4    1
@<TRIPOS>MOLECULE
*****
 35 39 0 0 0
SMALL
GASTEIGER

@<TRIPOS>ATOM
      1 O         143.7411  138.7417  159.7795 O.2     1  UNL1       -0.2733
      2 C         142.5170  138.1647  159.1325 C.2     1  UNL1        0.2425
      3 N         141.2524  138.0099  159.9243 N.am    1  UNL1       -0.3018
      4 H         140.4490  137.6312  159.4996 H       1  UNL1        0.1495
      5 C         141.2120  138.4322  161.3630 C.3     1  UNL1        0.1035
      6 C         141.1457  137.7135  162.6779 C.3     1  UNL1        0.0933
      7 N         141.1549  139.0295  163.3978 N.3     1  UNL1       -0.2711
      8 C         141.2212  139.7482  162.0829 C.3     1  UNL1        0.0933
      9 C         141.1145  139.4517  164.8366 C.3     1  UNL1        0.0576
     10 C         142.3794  139.4938  165.6417 C.3     1  UNL1        0.0163
     11 C         142.3390  139.9160  167.0804 C.3     1  UNL1        0.0063
     12 C         141.0336  140.2962  167.7141 C.3     1  UNL1        0.0301
     13 C         139.7687  140.2541  166.9089 C.3     1  UNL1        0.0063
     14 C         139.8091  139.8319  165.4702 C.3     1  UNL1        0.0163
     15 C         140.9931  140.7184  169.1528 C.ar    1  UNL1        0.0275
     16 C         140.6080  139.8524  170.3155 C.ar    1  UNL1        0.1016
     17 N         140.7075  140.6797  171.5628 N.ar    1  UNL1       -0.2351
     18 C         141.1541  142.0571  171.1710 C.ar    1  UNL1        0.1342
     19 S         141.3307  142.0810  169.6816 S.2     1  UNL1       -0.0688
     20 C         142.5574  137.7425  157.6938 C.3     1  UNL1        0.1747
     21 N         141.2976  137.3114  157.0029 N.pl3   1  UNL1       -0.3080
     22 H         140.4323  137.6967  157.2716 H       1  UNL1        0.1487
     23 C         141.3561  136.2935  155.9028 C.ar    1  UNL1        0.1708
     24 N         140.5595  136.3217  154.6321 N.ar    1  UNL1       -0.0621
     25 O         140.9326  135.1142  153.8242 O.2     1  UNL1       -0.3522
     26 C         141.9598  134.3397  154.5956 C.ar    1  UNL1        0.1781
     27 C         142.6906  133.0649  154.2942 C.ar    1  UNL1        0.0402
     28 C         143.6832  132.5190  155.2774 C.ar    1  UNL1        0.0071
     29 C         143.9449  133.2478  156.5620 C.ar    1  UNL1        0.0717
     30 C         143.2141  134.5226  156.8635 C.ar    1  UNL1        0.0099
     31 C         142.2215  135.0685  155.8802 C.ar    1  UNL1        0.0717
     32 C         144.9375  132.7019  157.5453 C.3     1  UNL1        0.4186
     33 F         145.9300  132.1559  158.5286 F       1  UNL1       -0.1659
     34 F         145.4902  131.7966  156.4847 F       1  UNL1       -0.1659
     35 F         144.3847  133.6071  158.6059 F       1  UNL1       -0.1659
@<TRIPOS>BOND
     1     1     2    2
     2     2    20    1
     3    20    21    1
     4    21    23    1
     5    23    24   ar
     6    24    25   ar
     7    25    26   ar
     8    26    27   ar
     9    27    28   ar
    10    28    29   ar
    11    29    32    1
    12    32    33    1
    13    32    34    1
    14    32    35    1
    15    29    30   ar
    16    30    31   ar
    17     2     3   am
    18     3     5    1
    19     5     6    1
    20     6     7    1
    21     9     7    1
    22     9    10    1
    23    10    11    1
    24    11    12    1
    25    12    15    1
    26    15    16   ar
    27    16    17   ar
    28    17    18   ar
    29    18    19   ar
    30    12    13    1
    31    13    14    1
    32     7     8    1
    33    31    23   ar
    34     8     5    1
    35    31    26   ar
    36    14     9    1
    37    19    15   ar
    38    21    22    1
    39     3     4    1
@<TRIPOS>MOLECULE
*****
 35 39 0 0 0
SMALL
GASTEIGER

@<TRIPOS>ATOM
      1 O         137.9411  139.7480  159.7938 O.2     1  UNL1       -0.2733
      2 C         138.2087  141.0357  159.0725 C.2     1  UNL1        0.2425
      3 N         138.7366  142.2212  159.8248 N.am    1  UNL1       -0.3018
      4 H         138.9122  143.0663  159.3514 H       1  UNL1        0.1495
      5 C         138.9968  142.1189  161.2986 C.3     1  UNL1        0.1035
      6 C         138.1725  142.3105  162.5370 C.3     1  UNL1        0.0933
      7 N         139.3648  141.9742  163.3827 N.3     1  UNL1       -0.2711
      8 C         140.1892  141.7826  162.1443 C.3     1  UNL1        0.0933
      9 C         139.6250  141.8720  164.8564 C.3     1  UNL1        0.0576
     10 C         139.3706  140.5801  165.5751 C.3     1  UNL1        0.0163
     11 C         139.6308  140.4779  167.0488 C.3     1  UNL1        0.0063
     12 C         140.1454  141.6674  167.8039 C.3     1  UNL1        0.0301
     13 C         140.3998  142.9593  167.0851 C.3     1  UNL1        0.0063
     14 C         140.1396  143.0615  165.6115 C.3     1  UNL1        0.0163
     15 C         140.4056  141.5653  169.2775 C.ar    1  UNL1        0.0275
     16 C         140.0399  142.5895  170.3107 C.ar    1  UNL1        0.1016
     17 N         140.4856  142.0781  171.6485 N.ar    1  UNL1       -0.2351
     18 C         141.1267  140.7378  171.4423 C.ar    1  UNL1        0.1342
     19 S         141.0774  140.4208  169.9770 S.2     1  UNL1       -0.0688
     20 C         137.9486  141.1380  157.5988 C.3     1  UNL1        0.1747
     21 N         136.9258  140.2498  156.9543 N.pl3   1  UNL1       -0.3080
     22 H         136.9580  139.2765  157.0986 H       1  UNL1        0.1487
     23 C         135.8538  140.8447  156.0900 C.ar    1  UNL1        0.1708
     24 N         136.0674  141.7934  154.9479 N.ar    1  UNL1       -0.0621
     25 O         134.7256  142.1303  154.3681 O.2     1  UNL1       -0.3522
     26 C         133.6828  141.3899  155.1519 C.ar    1  UNL1        0.1781
     27 C         132.1884  141.3366  155.0340 C.ar    1  UNL1        0.0402
     28 C         131.3913  140.4887  155.9804 C.ar    1  UNL1        0.0071
     29 C         132.0885  139.6941  157.0445 C.ar    1  UNL1        0.0717
     30 C         133.5829  139.7475  157.1624 C.ar    1  UNL1        0.0099
     31 C         134.3800  140.5954  156.2161 C.ar    1  UNL1        0.0717
     32 C         131.2913  138.8462  157.9909 C.3     1  UNL1        0.4186
     33 F         130.4941  137.9983  158.9372 F       1  UNL1       -0.1659
     34 F         132.5618  138.3291  158.5980 F       1  UNL1       -0.1659
     35 F         130.0209  139.3632  157.3838 F       1  UNL1       -0.1659
@<TRIPOS>BOND
     1     1     2    2
     2     2    20    1
     3    20    21    1
     4    21    23    1
     5    23    24   ar
     6    24    25   ar
     7    25    26   ar
     8    26    27   ar
     9    27    28   ar
    10    28    29   ar
    11    29    32    1
    12    32    33    1
    13    32    34    1
    14    32    35    1
    15    29    30   ar
    16    30    31   ar
    17     2     3   am
    18     3     5    1
    19     5     6    1
    20     6     7    1
    21     9     7    1
    22     9    10    1
    23    10    11    1
    24    11    12    1
    25    12    15    1
    26    15    16   ar
    27    16    17   ar
    28    17    18   ar
    29    18    19   ar
    30    12    13    1
    31    13    14    1
    32     7     8    1
    33    31    23   ar
    34     8     5    1
    35    31    26   ar
    36    14     9    1
    37    19    15   ar
    38    21    22    1
    39     3     4    1
@<TRIPOS>MOLECULE
*****
 35 39 0 0 0
SMALL
GASTEIGER

@<TRIPOS>ATOM
      1 O         141.9628  144.4369  160.2455 O.2     1  UNL1       -0.2733
      2 C         140.5306  144.6631  160.6298 C.2     1  UNL1        0.2425
      3 N         139.5007  143.6125  160.3377 N.am    1  UNL1       -0.3018
      4 H         138.5607  143.7610  160.5900 H       1  UNL1        0.1495
      5 C         139.9031  142.3355  159.6614 C.3     1  UNL1        0.1035
      6 C         140.4393  141.9755  158.3076 C.3     1  UNL1        0.0933
      7 N         140.4720  140.5295  158.7049 N.3     1  UNL1       -0.2711
      8 C         139.9357  140.8894  160.0588 C.3     1  UNL1        0.0933
      9 C         140.8743  139.2525  158.0286 C.3     1  UNL1        0.0576
     10 C         139.8766  138.4933  157.2052 C.3     1  UNL1        0.0163
     11 C         140.2789  137.2163  156.5288 C.3     1  UNL1        0.0063
     12 C         141.6790  136.6985  156.6759 C.3     1  UNL1        0.0301
     13 C         142.6767  137.4578  157.4993 C.3     1  UNL1        0.0063
     14 C         142.2744  138.7347  158.1756 C.3     1  UNL1        0.0163
     15 C         142.0814  135.4216  155.9996 C.ar    1  UNL1        0.0275
     16 C         141.3160  134.7168  154.9190 C.ar    1  UNL1        0.1016
     17 N         142.0816  133.4848  154.5367 N.ar    1  UNL1       -0.2351
     18 C         143.3201  133.4281  155.3811 C.ar    1  UNL1        0.1342
     19 S         143.3200  134.6250  156.2852 S.2     1  UNL1       -0.0688
     20 C         140.1283  145.9401  161.3061 C.3     1  UNL1        0.1747
     21 N         140.5012  146.1796  162.7392 N.pl3   1  UNL1       -0.3080
     22 H         140.9683  147.0077  162.9946 H       1  UNL1        0.1487
     23 C         140.1624  145.1572  163.7832 C.ar    1  UNL1        0.1708
     24 N         138.8313  144.9899  164.4542 N.ar    1  UNL1       -0.0621
     25 O         138.9415  143.8519  165.4252 O.2     1  UNL1       -0.3522
     26 C         140.3407  143.3159  165.3543 C.ar    1  UNL1        0.1781
     27 C         141.0252  142.1974  166.0827 C.ar    1  UNL1        0.0402
     28 C         142.4642  141.8858  165.7963 C.ar    1  UNL1        0.0071
     29 C         143.2187  142.6925  164.7815 C.ar    1  UNL1        0.0717
     30 C         142.5343  143.8109  164.0531 C.ar    1  UNL1        0.0099
     31 C         141.0953  144.1226  164.3395 C.ar    1  UNL1        0.0717
     32 C         144.6578  142.3807  164.4952 C.3     1  UNL1        0.4186
     33 F         146.0968  142.0691  164.2088 F       1  UNL1       -0.1659
     34 F         144.2353  141.2633  163.5881 F       1  UNL1       -0.1659
     35 F         145.0803  143.4982  165.4022 F       1  UNL1       -0.1659
@<TRIPOS>BOND
     1     1     2    2
     2     2    20    1
     3    20    21    1
     4    21    23    1
     5    23    24   ar
     6    24    25   ar
     7    25    26   ar
     8    26    27   ar
     9    27    28   ar
    10    28    29   ar
    11    29    32    1
    12    32    33    1
    13    32    34    1
    14    32    35    1
    15    29    30   ar
    16    30    31   ar
    17     2     3   am
    18     3     5    1
    19     5     6    1
    20     6     7    1
    21     9     7    1
    22     9    10    1
    23    10    11    1
    24    11    12    1
    25    12    15    1
    26    15    16   ar
    27    16    17   ar
    28    17    18   ar
    29    18    19   ar
    30    12    13    1
    31    13    14    1
    32     7     8    1
    33    31    23   ar
    34     8     5    1
    35    31    26   ar
    36    14     9    1
    37    19    15   ar
    38    21    22    1
    39     3     4    1
@<TRIPOS>MOLECULE
*****
 35 39 0 0 0
SMALL
GASTEIGER

@<TRIPOS>ATOM
      1 O         143.4275  142.5339  163.0848 O.2     1  UNL1       -0.2733
      2 C         143.3008  143.8829  162.4413 C.2     1  UNL1        0.2425
      3 N         143.0747  143.9902  160.9624 N.am    1  UNL1       -0.3018
      4 H         142.9915  144.8756  160.5401 H       1  UNL1        0.1495
      5 C         142.9753  142.7484  160.1269 C.3     1  UNL1        0.1035
      6 C         143.9607  141.8530  159.4362 C.3     1  UNL1        0.0933
      7 N         142.8346  140.9922  158.9454 N.3     1  UNL1       -0.2711
      8 C         141.8491  141.8876  159.6361 C.3     1  UNL1        0.0933
      9 C         142.7352  139.7503  158.1099 C.3     1  UNL1        0.0576
     10 C         142.6129  139.8574  156.6188 C.3     1  UNL1        0.0163
     11 C         142.5135  138.6156  155.7833 C.3     1  UNL1        0.0063
     12 C         142.5364  137.2667  156.4390 C.3     1  UNL1        0.0301
     13 C         142.6587  137.1597  157.9302 C.3     1  UNL1        0.0063
     14 C         142.7581  138.4015  158.7656 C.3     1  UNL1        0.0163
     15 C         142.4370  136.0249  155.6036 C.ar    1  UNL1        0.0275
     16 C         142.4732  134.6143  156.1128 C.ar    1  UNL1        0.1016
     17 N         142.3425  133.6932  154.9362 N.ar    1  UNL1       -0.2351
     18 C         142.2255  134.5344  153.6998 C.ar    1  UNL1        0.1342
     19 S         142.2839  135.9754  154.1122 S.2     1  UNL1       -0.0688
     20 C         143.4002  145.1247  163.2768 C.3     1  UNL1        0.1747
     21 N         142.1549  145.7859  163.7888 N.pl3   1  UNL1       -0.3080
     22 H         142.2148  146.4670  164.4972 H       1  UNL1        0.1487
     23 C         140.8183  145.4093  163.2216 C.ar    1  UNL1        0.1708
     24 N         140.1095  146.1056  162.0978 N.ar    1  UNL1       -0.0621
     25 O         138.8091  145.3969  161.8603 O.2     1  UNL1       -0.3522
     26 C         138.7141  144.2626  162.8372 C.ar    1  UNL1        0.1781
     27 C         137.6573  143.2237  163.0693 C.ar    1  UNL1        0.0402
     28 C         137.8423  142.1925  164.1427 C.ar    1  UNL1        0.0071
     29 C         139.0841  142.2002  164.9841 C.ar    1  UNL1        0.0717
     30 C         140.1409  143.2391  164.7520 C.ar    1  UNL1        0.0099
     31 C         139.9559  144.2702  163.6785 C.ar    1  UNL1        0.0717
     32 C         139.2691  141.1689  166.0576 C.3     1  UNL1        0.4186
     33 F         139.4541  140.1377  167.1311 F       1  UNL1       -0.1659
     34 F         138.2704  140.2808  165.3766 F       1  UNL1       -0.1659
     35 F         140.2678  142.0570  166.7386 F       1  UNL1       -0.1659
@<TRIPOS>BOND
     1     1     2    2
     2     2    20    1
     3    20    21    1
     4    21    23    1
     5    23    24   ar
     6    24    25   ar
     7    25    26   ar
     8    26    27   ar
     9    27    28   ar
    10    28    29   ar
    11    29    32    1
    12    32    33    1
    13    32    34    1
    14    32    35    1
    15    29    30   ar
    16    30    31   ar
    17     2     3   am
    18     3     5    1
    19     5     6    1
    20     6     7    1
    21     9     7    1
    22     9    10    1
    23    10    11    1
    24    11    12    1
    25    12    15    1
    26    15    16   ar
    27    16    17   ar
    28    17    18   ar
    29    18    19   ar
    30    12    13    1
    31    13    14    1
    32     7     8    1
    33    31    23   ar
    34     8     5    1
    35    31    26   ar
    36    14     9    1
    37    19    15   ar
    38    21    22    1
    39     3     4    1
@<TRIPOS>MOLECULE
*****
 35 39 0 0 0
SMALL
GASTEIGER

@<TRIPOS>ATOM
      1 O         141.5711  144.3620  159.0309 O.2     1  UNL1       -0.2733
      2 C         140.4987  145.4102  159.0672 C.2     1  UNL1        0.2425
      3 N         139.7928  145.7168  160.3547 N.am    1  UNL1       -0.3018
      4 H         139.0889  146.4047  160.3784 H       1  UNL1        0.1495
      5 C         140.1594  144.9753  161.6060 C.3     1  UNL1        0.1035
      6 C         141.1576  145.1804  162.7066 C.3     1  UNL1        0.0933
      7 N         140.6778  143.9265  163.3756 N.3     1  UNL1       -0.2711
      8 C         139.6795  143.7213  162.2750 C.3     1  UNL1        0.0933
      9 C         141.0444  143.1850  164.6269 C.3     1  UNL1        0.0576
     10 C         142.3185  142.3956  164.6849 C.3     1  UNL1        0.0163
     11 C         142.6851  141.6541  165.9362 C.3     1  UNL1        0.0063
     12 C         141.7776  141.7019  167.1295 C.3     1  UNL1        0.0301
     13 C         140.5034  142.4913  167.0714 C.3     1  UNL1        0.0063
     14 C         140.1368  143.2328  165.8202 C.3     1  UNL1        0.0163
     15 C         142.1441  140.9604  168.3808 C.ar    1  UNL1        0.0275
     16 C         142.5991  139.5332  168.4589 C.ar    1  UNL1        0.1016
     17 N         142.8561  139.2068  169.9002 N.ar    1  UNL1       -0.2351
     18 C         142.5599  140.4322  170.7129 C.ar    1  UNL1        0.1342
     19 S         142.1199  141.5161  169.7739 S.2     1  UNL1       -0.0688
     20 C         140.1321  146.1517  157.8159 C.3     1  UNL1        0.1747
     21 N         139.7646  145.3932  156.5750 N.pl3   1  UNL1       -0.3080
     22 H         139.1728  144.6087  156.6347 H       1  UNL1        0.1487
     23 C         140.2987  145.8301  155.2431 C.ar    1  UNL1        0.1708
     24 N         141.0836  144.9820  154.2867 N.ar    1  UNL1       -0.0621
     25 O         141.4117  145.8195  153.0864 O.2     1  UNL1       -0.3522
     26 C         140.8297  147.1853  153.3009 C.ar    1  UNL1        0.1781
     27 C         140.8372  148.4238  152.4548 C.ar    1  UNL1        0.0402
     28 C         140.1569  149.6688  152.9416 C.ar    1  UNL1        0.0071
     29 C         139.4690  149.6753  154.2746 C.ar    1  UNL1        0.0717
     30 C         139.4615  148.4368  155.1207 C.ar    1  UNL1        0.0099
     31 C         140.1418  147.1918  154.6339 C.ar    1  UNL1        0.0717
     32 C         138.7886  150.9204  154.7614 C.3     1  UNL1        0.4186
     33 F         138.1082  152.1654  155.2481 F       1  UNL1       -0.1659
     34 F         139.5539  151.7310  153.7578 F       1  UNL1       -0.1659
     35 F         138.0233  150.1098  155.7649 F       1  UNL1       -0.1659
@<TRIPOS>BOND
     1     1     2    2
     2     2    20    1
     3    20    21    1
     4    21    23    1
     5    23    24   ar
     6    24    25   ar
     7    25    26   ar
     8    26    27   ar
     9    27    28   ar
    10    28    29   ar
    11    29    32    1
    12    32    33    1
    13    32    34    1
    14    32    35    1
    15    29    30   ar
    16    30    31   ar
    17     2     3   am
    18     3     5    1
    19     5     6    1
    20     6     7    1
    21     9     7    1
    22     9    10    1
    23    10    11    1
    24    11    12    1
    25    12    15    1
    26    15    16   ar
    27    16    17   ar
    28    17    18   ar
    29    18    19   ar
    30    12    13    1
    31    13    14    1
    32     7     8    1
    33    31    23   ar
    34     8     5    1
    35    31    26   ar
    36    14     9    1
    37    19    15   ar
    38    21    22    1
    39     3     4    1
@<TRIPOS>MOLECULE
*****
 35 39 0 0 0
SMALL
GASTEIGER

@<TRIPOS>ATOM
      1 O         143.8067  139.1379  159.3459 O.2     1  UNL1       -0.2733
      2 C         144.1200  140.4291  158.6496 C.2     1  UNL1        0.2425
      3 N         144.1606  141.7105  159.4283 N.am    1  UNL1       -0.3018
      4 H         144.3663  142.5579  158.9713 H       1  UNL1        0.1495
      5 C         143.8878  141.7007  160.9032 C.3     1  UNL1        0.1035
      6 C         142.8080  142.2529  161.7859 C.3     1  UNL1        0.0933
      7 N         143.5020  141.6868  162.9892 N.3     1  UNL1       -0.2711
      8 C         144.5819  141.1346  162.1066 C.3     1  UNL1        0.0933
      9 C         143.2292  141.6771  164.4641 C.3     1  UNL1        0.0576
     10 C         142.4268  140.5645  165.0711 C.3     1  UNL1        0.0163
     11 C         142.1540  140.5548  166.5460 C.3     1  UNL1        0.0063
     12 C         142.6835  141.6576  167.4140 C.3     1  UNL1        0.0301
     13 C         143.4859  142.7701  166.8070 C.3     1  UNL1        0.0063
     14 C         143.7587  142.7799  165.3321 C.3     1  UNL1        0.0163
     15 C         142.4108  141.6479  168.8889 C.ar    1  UNL1        0.0275
     16 C         142.2239  142.8554  169.7591 C.ar    1  UNL1        0.1016
     17 N         141.9746  142.3827  171.1606 N.ar    1  UNL1       -0.2351
     18 C         142.0075  140.8831  171.1568 C.ar    1  UNL1        0.1342
     19 S         142.2770  140.4289  169.7528 S.2     1  UNL1       -0.0688
     20 C         144.3929  140.4388  157.1747 C.3     1  UNL1        0.1747
     21 N         145.7339  140.8746  156.6629 N.pl3   1  UNL1       -0.3080
     22 H         146.5521  140.4352  156.9897 H       1  UNL1        0.1487
     23 C         145.8283  141.9797  155.6530 C.ar    1  UNL1        0.1708
     24 N         144.7025  142.8647  155.2066 N.ar    1  UNL1       -0.0621
     25 O         145.2435  143.8258  154.1900 O.2     1  UNL1       -0.3522
     26 C         146.7038  143.5349  154.0081 C.ar    1  UNL1        0.1781
     27 C         147.7510  144.1614  153.1360 C.ar    1  UNL1        0.0402
     28 C         149.1597  143.6471  153.1681 C.ar    1  UNL1        0.0071
     29 C         149.5211  142.5061  154.0723 C.ar    1  UNL1        0.0717
     30 C         148.4739  141.8795  154.9444 C.ar    1  UNL1        0.0099
     31 C         147.0652  142.3939  154.9124 C.ar    1  UNL1        0.0717
     32 C         150.9298  141.9918  154.1044 C.3     1  UNL1        0.4186
     33 F         152.3385  141.4774  154.1365 F       1  UNL1       -0.1659
     34 F         151.3522  143.0906  153.1748 F       1  UNL1       -0.1659
     35 F         150.5074  140.8930  155.0340 F       1  UNL1       -0.1659
@<TRIPOS>BOND
     1     1     2    2
     2     2    20    1
     3    20    21    1
     4    21    23    1
     5    23    24   ar
     6    24    25   ar
     7    25    26   ar
     8    26    27   ar
     9    27    28   ar
    10    28    29   ar
    11    29    32    1
    12    32    33    1
    13    32    34    1
    14    32    35    1
    15    29    30   ar
    16    30    31   ar
    17     2     3   am
    18     3     5    1
    19     5     6    1
    20     6     7    1
    21     9     7    1
    22     9    10    1
    23    10    11    1
    24    11    12    1
    25    12    15    1
    26    15    16   ar
    27    16    17   ar
    28    17    18   ar
    29    18    19   ar
    30    12    13    1
    31    13    14    1
    32     7     8    1
    33    31    23   ar
    34     8     5    1
    35    31    26   ar
    36    14     9    1
    37    19    15   ar
    38    21    22    1
    39     3     4    1
@<TRIPOS>MOLECULE
*****
 35 39 0 0 0
SMALL
GASTEIGER

@<TRIPOS>ATOM
      1 O         143.0244  137.3472  158.3478 O.2     1  UNL1       -0.2733
      2 C         141.6999  137.7391  157.7628 C.2     1  UNL1        0.2425
      3 N         140.6733  138.4191  158.6194 N.am    1  UNL1       -0.3018
      4 H         139.8040  138.6763  158.2354 H       1  UNL1        0.1495
      5 C         140.9712  138.7072  160.0610 C.3     1  UNL1        0.1035
      6 C         140.3366  138.3393  161.3693 C.3     1  UNL1        0.0933
      7 N         141.3927  139.1147  162.0998 N.3     1  UNL1       -0.2711
      8 C         142.0274  139.4826  160.7914 C.3     1  UNL1        0.0933
      9 C         141.6906  139.4027  163.5414 C.3     1  UNL1        0.0576
     10 C         141.2102  140.6791  164.1660 C.3     1  UNL1        0.0163
     11 C         141.5081  140.9672  165.6076 C.3     1  UNL1        0.0063
     12 C         142.2864  139.9789  166.4246 C.3     1  UNL1        0.0301
     13 C         142.7668  138.7025  165.7999 C.3     1  UNL1        0.0063
     14 C         142.4689  138.4145  164.3584 C.3     1  UNL1        0.0163
     15 C         142.5844  140.2669  167.8662 C.ar    1  UNL1        0.0275
     16 C         142.6167  139.2605  168.9781 C.ar    1  UNL1        0.1016
     17 N         142.9547  139.9836  170.2481 N.ar    1  UNL1       -0.2351
     18 C         143.1312  141.4369  169.9212 C.ar    1  UNL1        0.1342
     19 S         142.9024  141.6120  168.4491 S.2     1  UNL1       -0.0688
     20 C         141.4020  137.4510  156.3212 C.3     1  UNL1        0.1747
     21 N         140.5207  136.2939  155.9542 N.pl3   1  UNL1       -0.3080
     22 H         139.7259  136.0887  156.4977 H       1  UNL1        0.1487
     23 C         140.8505  135.4495  154.7591 C.ar    1  UNL1        0.1708
     24 N         140.3810  135.6879  153.3545 N.ar    1  UNL1       -0.0621
     25 O         140.9480  134.6042  152.4861 O.2     1  UNL1       -0.3522
     26 C         141.7680  133.6961  153.3540 C.ar    1  UNL1        0.1781
     27 C         142.5617  132.4611  153.0465 C.ar    1  UNL1        0.0402
     28 C         143.2951  131.7484  154.1439 C.ar    1  UNL1        0.0071
     29 C         143.2348  132.2709  155.5486 C.ar    1  UNL1        0.0717
     30 C         142.4411  133.5060  155.8561 C.ar    1  UNL1        0.0099
     31 C         141.7077  134.2186  154.7587 C.ar    1  UNL1        0.0717
     32 C         143.9683  131.5582  156.6460 C.3     1  UNL1        0.4186
     33 F         144.7018  130.8455  157.7433 F       1  UNL1       -0.1659
     34 F         142.7430  131.6252  157.5086 F       1  UNL1       -0.1659
     35 F         145.1936  131.4912  155.7835 F       1  UNL1       -0.1659
@<TRIPOS>BOND
     1     1     2    2
     2     2    20    1
     3    20    21    1
     4    21    23    1
     5    23    24   ar
     6    24    25   ar
     7    25    26   ar
     8    26    27   ar
     9    27    28   ar
    10    28    29   ar
    11    29    32    1
    12    32    33    1
    13    32    34    1
    14    32    35    1
    15    29    30   ar
    16    30    31   ar
    17     2     3   am
    18     3     5    1
    19     5     6    1
    20     6     7    1
    21     9     7    1
    22     9    10    1
    23    10    11    1
    24    11    12    1
    25    12    15    1
    26    15    16   ar
    27    16    17   ar
    28    17    18   ar
    29    18    19   ar
    30    12    13    1
    31    13    14    1
    32     7     8    1
    33    31    23   ar
    34     8     5    1
    35    31    26   ar
    36    14     9    1
    37    19    15   ar
    38    21    22    1
    39     3     4    1
