@<TRIPOS>MOLECULE
*****
 31 35 0 0 0
SMALL
GASTEIGER

@<TRIPOS>ATOM
      1 N         136.6826  137.6246  168.0526 N.pl3   1  UNL1       -0.2464
      2 C         137.7829  138.4598  167.4679 C.2     1  UNL1        0.3157
      3 N         138.3325  138.3455  166.0769 N.2     1  UNL1       -0.0614
      4 C         139.4160  139.3711  165.9210 C.3     1  UNL1        0.2309
      5 C         139.5360  140.1191  167.2156 C.ar    1  UNL1        0.0390
      6 C         140.4340  141.2403  167.6474 C.ar    1  UNL1        0.0008
      7 C         140.3226  141.7983  169.0352 C.ar    1  UNL1        0.0021
      8 C         139.3133  141.2351  169.9913 C.ar    1  UNL1        0.0299
      9 C         138.4153  140.1139  169.5595 C.ar    1  UNL1        0.1470
     10 F         137.4060  139.5507  170.5156 F       1  UNL1       -0.2039
     11 C         138.5267  139.5559  168.1717 C.ar    1  UNL1        0.1094
     12 H         136.2533  136.9253  167.5086 H       1  UNL1        0.2884
     13 H         136.3898  137.7757  168.9803 H       1  UNL1        0.2884
     14 C         139.5273  138.8130  164.5331 C.ar    1  UNL1        0.0328
     15 C         140.6789  137.9218  164.1732 C.ar    1  UNL1        0.0211
     16 C         140.7902  137.3637  162.7854 C.ar    1  UNL1        0.0987
     17 N         139.7499  137.6969  161.7574 N.ar    1  UNL1       -0.2423
     18 C         138.5983  138.5882  162.1172 C.ar    1  UNL1        0.0987
     19 C         138.4870  139.1462  163.5051 C.ar    1  UNL1        0.0211
     20 C         140.5228  140.2799  165.4749 C.ar    1  UNL1        0.0297
     21 C         141.9254  140.0434  165.9512 C.ar    1  UNL1        0.0004
     22 C         143.0322  140.9523  165.5051 C.ar    1  UNL1       -0.0002
     23 C         142.7364  142.0976  164.5827 C.ar    1  UNL1        0.0001
     24 C         141.3338  142.3341  164.1064 C.ar    1  UNL1        0.0028
     25 C         140.2270  141.4252  164.5525 C.ar    1  UNL1        0.0005
     26 C         141.0379  143.4794  163.1841 C.ar    1  UNL1        0.0384
     27 C         139.7912  144.2919  163.3733 C.ar    1  UNL1        0.1022
     28 N         139.4953  145.4372  162.4511 N.ar    1  UNL1       -0.2224
     29 C         140.4460  145.7700  161.3395 C.ar    1  UNL1        0.1989
     30 N         141.6926  144.9576  161.1504 N.ar    1  UNL1       -0.2224
     31 C         141.9886  143.8123  162.0727 C.ar    1  UNL1        0.1022
@<TRIPOS>BOND
     1     1     2    1
     2     2     3    2
     3     3     4    1
     4     4    14    1
     5    14    15   ar
     6    15    16   ar
     7    16    17   ar
     8    17    18   ar
     9    18    19   ar
    10     4    20    1
    11    20    21   ar
    12    21    22   ar
    13    22    23   ar
    14    23    24   ar
    15    24    26    1
    16    26    27   ar
    17    27    28   ar
    18    28    29   ar
    19    29    30   ar
    20    30    31   ar
    21    24    25   ar
    22     4     5    1
    23     5     6   ar
    24     6     7   ar
    25     7     8   ar
    26     8     9   ar
    27     9    10    1
    28     9    11   ar
    29    11     2    1
    30    19    14   ar
    31    25    20   ar
    32    11     5   ar
    33    31    26   ar
    34     1    12    1
    35     1    13    1
@<TRIPOS>MOLECULE
*****
 31 35 0 0 0
SMALL
GASTEIGER

@<TRIPOS>ATOM
      1 N         144.3443  144.1102  162.0952 N.pl3   1  UNL1       -0.2464
      2 C         143.4231  143.1732  162.8187 C.2     1  UNL1        0.3157
      3 N         141.9502  143.3688  163.0245 N.2     1  UNL1       -0.0614
      4 C         141.4299  142.1926  163.7964 C.3     1  UNL1        0.2309
      5 C         142.5812  141.2701  164.0677 C.ar    1  UNL1        0.0390
      6 C         142.6669  139.9566  164.7868 C.ar    1  UNL1        0.0008
      7 C         143.9846  139.2491  164.9017 C.ar    1  UNL1        0.0021
      8 C         145.2164  139.8552  164.2974 C.ar    1  UNL1        0.0299
      9 C         145.1307  141.1687  163.5783 C.ar    1  UNL1        0.1470
     10 F         146.3626  141.7748  162.9740 F       1  UNL1       -0.2039
     11 C         143.8130  141.8762  163.4634 C.ar    1  UNL1        0.1094
     12 H         143.9922  144.9420  161.7036 H       1  UNL1        0.2884
     13 H         145.3010  143.8933  162.0120 H       1  UNL1        0.2884
     14 C         140.1122  142.9002  163.6816 C.ar    1  UNL1        0.0328
     15 C         139.5886  143.7025  164.8357 C.ar    1  UNL1        0.0211
     16 C         138.2710  144.4100  164.7207 C.ar    1  UNL1        0.0987
     17 N         137.4769  144.3152  163.4517 N.ar    1  UNL1       -0.2423
     18 C         138.0005  143.5128  162.2976 C.ar    1  UNL1        0.0987
     19 C         139.3181  142.8053  162.4125 C.ar    1  UNL1        0.0211
     20 C         140.6341  141.1644  164.5443 C.ar    1  UNL1        0.0297
     21 C         139.7701  140.1938  163.7949 C.ar    1  UNL1        0.0004
     22 C         138.9743  139.1655  164.5428 C.ar    1  UNL1       -0.0002
     23 C         139.0424  139.1078  166.0401 C.ar    1  UNL1        0.0001
     24 C         139.9064  140.0783  166.7896 C.ar    1  UNL1        0.0028
     25 C         140.7022  141.1066  166.0417 C.ar    1  UNL1        0.0005
     26 C         139.9746  140.0206  168.2869 C.ar    1  UNL1        0.0384
     27 C         141.3044  140.0678  168.9794 C.ar    1  UNL1        0.1022
     28 N         141.3727  140.0102  170.4767 N.ar    1  UNL1       -0.2224
     29 C         140.1112  139.9053  171.2815 C.ar    1  UNL1        0.1989
     30 N         138.7814  139.8581  170.5890 N.ar    1  UNL1       -0.2224
     31 C         138.7131  139.9158  169.0917 C.ar    1  UNL1        0.1022
@<TRIPOS>BOND
     1     1     2    1
     2     2     3    2
     3     3     4    1
     4     4    14    1
     5    14    15   ar
     6    15    16   ar
     7    16    17   ar
     8    17    18   ar
     9    18    19   ar
    10     4    20    1
    11    20    21   ar
    12    21    22   ar
    13    22    23   ar
    14    23    24   ar
    15    24    26    1
    16    26    27   ar
    17    27    28   ar
    18    28    29   ar
    19    29    30   ar
    20    30    31   ar
    21    24    25   ar
    22     4     5    1
    23     5     6   ar
    24     6     7   ar
    25     7     8   ar
    26     8     9   ar
    27     9    10    1
    28     9    11   ar
    29    11     2    1
    30    19    14   ar
    31    25    20   ar
    32    11     5   ar
    33    31    26   ar
    34     1    12    1
    35     1    13    1
@<TRIPOS>MOLECULE
*****
 31 35 0 0 0
SMALL
GASTEIGER

@<TRIPOS>ATOM
      1 N         140.6318  140.0828  160.1547 N.pl3   1  UNL1       -0.2464
      2 C         140.9640  139.9194  161.6083 C.2     1  UNL1        0.3157
      3 N         142.0782  140.6066  162.3407 N.2     1  UNL1       -0.0614
      4 C         142.0431  140.1520  163.7697 C.3     1  UNL1        0.2309
      5 C         140.9073  139.1839  163.9205 C.ar    1  UNL1        0.0390
      6 C         140.3941  138.4148  165.1016 C.ar    1  UNL1        0.0008
      7 C         139.2141  137.5018  164.9468 C.ar    1  UNL1        0.0021
      8 C         138.5472  137.3581  163.6109 C.ar    1  UNL1        0.0299
      9 C         139.0603  138.1273  162.4298 C.ar    1  UNL1        0.1470
     10 F         138.3934  137.9835  161.0940 F       1  UNL1       -0.2039
     11 C         140.2403  139.0402  162.5846 C.ar    1  UNL1        0.1094
     12 H         141.1684  140.6867  159.5920 H       1  UNL1        0.2884
     13 H         139.8772  139.5862  159.7634 H       1  UNL1        0.2884
     14 C         143.2232  141.0650  163.9245 C.ar    1  UNL1        0.0328
     15 C         144.5751  140.6319  163.4401 C.ar    1  UNL1        0.0211
     16 C         145.7551  141.5448  163.5949 C.ar    1  UNL1        0.0987
     17 N         145.5832  142.8909  164.2340 N.ar    1  UNL1       -0.2423
     18 C         144.2313  143.3241  164.7184 C.ar    1  UNL1        0.0987
     19 C         143.0513  142.4111  164.5636 C.ar    1  UNL1        0.0211
     20 C         142.2547  139.8883  165.2311 C.ar    1  UNL1        0.0297
     21 C         143.1464  138.7643  165.6690 C.ar    1  UNL1        0.0004
     22 C         143.3581  138.5007  167.1304 C.ar    1  UNL1       -0.0002
     23 C         142.6780  139.3609  168.1539 C.ar    1  UNL1        0.0001
     24 C         141.7864  140.4848  167.7161 C.ar    1  UNL1        0.0028
     25 C         141.5747  140.7486  166.2546 C.ar    1  UNL1        0.0005
     26 C         141.1063  141.3451  168.7396 C.ar    1  UNL1        0.0384
     27 C         140.7217  140.7668  170.0692 C.ar    1  UNL1        0.1022
     28 N         140.0416  141.6270  171.0926 N.ar    1  UNL1       -0.2224
     29 C         139.7462  143.0654  170.7865 C.ar    1  UNL1        0.1989
     30 N         140.1308  143.6436  169.4570 N.ar    1  UNL1       -0.2224
     31 C         140.8109  142.7834  168.4335 C.ar    1  UNL1        0.1022
@<TRIPOS>BOND
     1     1     2    1
     2     2     3    2
     3     3     4    1
     4     4    14    1
     5    14    15   ar
     6    15    16   ar
     7    16    17   ar
     8    17    18   ar
     9    18    19   ar
    10     4    20    1
    11    20    21   ar
    12    21    22   ar
    13    22    23   ar
    14    23    24   ar
    15    24    26    1
    16    26    27   ar
    17    27    28   ar
    18    28    29   ar
    19    29    30   ar
    20    30    31   ar
    21    24    25   ar
    22     4     5    1
    23     5     6   ar
    24     6     7   ar
    25     7     8   ar
    26     8     9   ar
    27     9    10    1
    28     9    11   ar
    29    11     2    1
    30    19    14   ar
    31    25    20   ar
    32    11     5   ar
    33    31    26   ar
    34     1    12    1
    35     1    13    1
@<TRIPOS>MOLECULE
*****
 31 35 0 0 0
SMALL
GASTEIGER

@<TRIPOS>ATOM
      1 N         142.1213  145.0425  161.0863 N.pl3   1  UNL1       -0.2464
      2 C         141.5833  143.9972  162.0179 C.2     1  UNL1        0.3157
      3 N         142.3196  142.7824  162.4997 N.2     1  UNL1       -0.0614
      4 C         141.4058  142.0176  163.4108 C.3     1  UNL1        0.2309
      5 C         140.1048  142.7597  163.4920 C.ar    1  UNL1        0.0390
      6 C         138.8344  142.4794  164.2387 C.ar    1  UNL1        0.0008
      7 C         137.6737  143.4226  164.1245 C.ar    1  UNL1        0.0021
      8 C         137.7833  144.6461  163.2636 C.ar    1  UNL1        0.0299
      9 C         139.0537  144.9263  162.5169 C.ar    1  UNL1        0.1470
     10 F         139.1634  146.1498  161.6560 F       1  UNL1       -0.2039
     11 C         140.2144  143.9831  162.6312 C.ar    1  UNL1        0.1094
     12 H         143.0373  144.9637  160.7343 H       1  UNL1        0.2884
     13 H         141.5583  145.8073  160.8267 H       1  UNL1        0.2884
     14 C         142.5666  141.0744  163.5250 C.ar    1  UNL1        0.0328
     15 C         143.7753  141.4656  164.3225 C.ar    1  UNL1        0.0211
     16 C         144.9360  140.5225  164.4367 C.ar    1  UNL1        0.0987
     17 N         144.8881  139.1880  163.7533 N.ar    1  UNL1       -0.2423
     18 C         143.6794  138.7968  162.9558 C.ar    1  UNL1        0.0987
     19 C         142.5187  139.7400  162.8416 C.ar    1  UNL1        0.0211
     20 C         140.7348  141.0556  164.3457 C.ar    1  UNL1        0.0297
     21 C         139.8619  139.9645  163.8000 C.ar    1  UNL1        0.0004
     22 C         139.1908  139.0025  164.7349 C.ar    1  UNL1       -0.0002
     23 C         139.3925  139.1316  166.2157 C.ar    1  UNL1        0.0001
     24 C         140.2653  140.2226  166.7615 C.ar    1  UNL1        0.0028
     25 C         140.9365  141.1846  165.8265 C.ar    1  UNL1        0.0005
     26 C         140.4671  140.3517  168.2423 C.ar    1  UNL1        0.0384
     27 C         141.8398  140.6021  168.7931 C.ar    1  UNL1        0.1022
     28 N         142.0416  140.7312  170.2737 N.ar    1  UNL1       -0.2224
     29 C         140.8709  140.6099  171.2037 C.ar    1  UNL1        0.1989
     30 N         139.4983  140.3594  170.6529 N.ar    1  UNL1       -0.2224
     31 C         139.2965  140.2303  169.1721 C.ar    1  UNL1        0.1022
@<TRIPOS>BOND
     1     1     2    1
     2     2     3    2
     3     3     4    1
     4     4    14    1
     5    14    15   ar
     6    15    16   ar
     7    16    17   ar
     8    17    18   ar
     9    18    19   ar
    10     4    20    1
    11    20    21   ar
    12    21    22   ar
    13    22    23   ar
    14    23    24   ar
    15    24    26    1
    16    26    27   ar
    17    27    28   ar
    18    28    29   ar
    19    29    30   ar
    20    30    31   ar
    21    24    25   ar
    22     4     5    1
    23     5     6   ar
    24     6     7   ar
    25     7     8   ar
    26     8     9   ar
    27     9    10    1
    28     9    11   ar
    29    11     2    1
    30    19    14   ar
    31    25    20   ar
    32    11     5   ar
    33    31    26   ar
    34     1    12    1
    35     1    13    1
@<TRIPOS>MOLECULE
*****
 31 35 0 0 0
SMALL
GASTEIGER

@<TRIPOS>ATOM
      1 N         138.5828  139.9013  170.2377 N.pl3   1  UNL1       -0.2464
      2 C         139.5142  140.2293  169.1086 C.2     1  UNL1        0.3157
      3 N         139.3480  139.8091  167.6782 N.2     1  UNL1       -0.0614
      4 C         140.5064  140.3552  166.8972 C.3     1  UNL1        0.2309
      5 C         141.3884  141.1129  167.8449 C.ar    1  UNL1        0.0390
      6 C         142.6707  141.8636  167.6398 C.ar    1  UNL1        0.0008
      7 C         143.3398  142.5365  168.8015 C.ar    1  UNL1        0.0021
      8 C         142.7265  142.4587  170.1682 C.ar    1  UNL1        0.0299
      9 C         141.4442  141.7079  170.3732 C.ar    1  UNL1        0.1470
     10 F         140.8310  141.6301  171.7399 F       1  UNL1       -0.2039
     11 C         140.7752  141.0351  169.2116 C.ar    1  UNL1        0.1094
     12 H         137.7758  139.3630  170.0696 H       1  UNL1        0.2884
     13 H         138.7785  140.2243  171.1469 H       1  UNL1        0.2884
     14 C         139.8373  139.6822  165.7355 C.ar    1  UNL1        0.0328
     15 C         138.6889  140.3518  165.0407 C.ar    1  UNL1        0.0211
     16 C         138.0198  139.6789  163.8790 C.ar    1  UNL1        0.0987
     17 N         138.4992  138.3363  163.4123 N.ar    1  UNL1       -0.2423
     18 C         139.6475  137.6668  164.1071 C.ar    1  UNL1        0.0987
     19 C         140.3166  138.3397  165.2688 C.ar    1  UNL1        0.0211
     20 C         141.5249  140.7606  165.8734 C.ar    1  UNL1        0.0297
     21 C         142.8779  140.1130  165.8641 C.ar    1  UNL1        0.0004
     22 C         143.8964  140.5184  164.8402 C.ar    1  UNL1       -0.0002
     23 C         143.5619  141.5714  163.8256 C.ar    1  UNL1        0.0001
     24 C         142.2089  142.2189  163.8348 C.ar    1  UNL1        0.0028
     25 C         141.1903  141.8135  164.8588 C.ar    1  UNL1        0.0005
     26 C         141.8743  143.2719  162.8203 C.ar    1  UNL1        0.0384
     27 C         142.6292  143.3324  161.5254 C.ar    1  UNL1        0.1022
     28 N         142.2947  144.3853  160.5108 N.ar    1  UNL1       -0.2224
     29 C         141.2052  145.3777  160.7910 C.ar    1  UNL1        0.1989
     30 N         140.4504  145.3171  162.0858 N.ar    1  UNL1       -0.2224
     31 C         140.7849  144.2642  163.1005 C.ar    1  UNL1        0.1022
@<TRIPOS>BOND
     1     1     2    1
     2     2     3    2
     3     3     4    1
     4     4    14    1
     5    14    15   ar
     6    15    16   ar
     7    16    17   ar
     8    17    18   ar
     9    18    19   ar
    10     4    20    1
    11    20    21   ar
    12    21    22   ar
    13    22    23   ar
    14    23    24   ar
    15    24    26    1
    16    26    27   ar
    17    27    28   ar
    18    28    29   ar
    19    29    30   ar
    20    30    31   ar
    21    24    25   ar
    22     4     5    1
    23     5     6   ar
    24     6     7   ar
    25     7     8   ar
    26     8     9   ar
    27     9    10    1
    28     9    11   ar
    29    11     2    1
    30    19    14   ar
    31    25    20   ar
    32    11     5   ar
    33    31    26   ar
    34     1    12    1
    35     1    13    1
@<TRIPOS>MOLECULE
*****
 31 35 0 0 0
SMALL
GASTEIGER

@<TRIPOS>ATOM
      1 N         138.3575  142.6489  159.8283 N.pl3   1  UNL1       -0.2464
      2 C         139.1770  141.9388  160.8647 C.2     1  UNL1        0.3157
      3 N         140.3843  142.4899  161.5637 N.2     1  UNL1       -0.0614
      4 C         140.8865  141.4445  162.5151 C.3     1  UNL1        0.2309
      5 C         139.9896  140.2473  162.4039 C.ar    1  UNL1        0.0390
      6 C         139.9984  138.9185  163.0998 C.ar    1  UNL1        0.0008
      7 C         138.9508  137.8952  162.7756 C.ar    1  UNL1        0.0021
      8 C         137.8942  138.2007  161.7556 C.ar    1  UNL1        0.0299
      9 C         137.8853  139.5295  161.0598 C.ar    1  UNL1        0.1470
     10 F         136.8288  139.8350  160.0398 F       1  UNL1       -0.2039
     11 C         138.9330  140.5528  161.3839 C.ar    1  UNL1        0.1094
     12 H         138.5983  143.5624  159.5514 H       1  UNL1        0.2884
     13 H         137.5787  142.2015  159.4250 H       1  UNL1        0.2884
     14 C         141.9342  142.4679  162.8392 C.ar    1  UNL1        0.0328
     15 C         143.2191  142.4968  162.0658 C.ar    1  UNL1        0.0211
     16 C         144.2667  143.5201  162.3900 C.ar    1  UNL1        0.0987
     17 N         144.0295  144.5146  163.4876 N.ar    1  UNL1       -0.2423
     18 C         142.7446  144.4857  164.2610 C.ar    1  UNL1        0.0987
     19 C         141.6970  143.4624  163.9368 C.ar    1  UNL1        0.0211
     20 C         141.6077  140.6131  163.5341 C.ar    1  UNL1        0.0297
     21 C         142.7632  139.7519  163.1177 C.ar    1  UNL1        0.0004
     22 C         143.4845  138.9205  164.1368 C.ar    1  UNL1       -0.0002
     23 C         143.0503  138.9502  165.5723 C.ar    1  UNL1        0.0001
     24 C         141.8948  139.8113  165.9887 C.ar    1  UNL1        0.0028
     25 C         141.1735  140.6428  164.9696 C.ar    1  UNL1        0.0005
     26 C         141.4606  139.8411  167.4242 C.ar    1  UNL1        0.0384
     27 C         142.4817  139.7436  168.5188 C.ar    1  UNL1        0.1022
     28 N         142.0475  139.7734  169.9542 N.ar    1  UNL1       -0.2224
     29 C         140.5923  139.9007  170.2951 C.ar    1  UNL1        0.1989
     30 N         139.5713  139.9982  169.2006 N.ar    1  UNL1       -0.2224
     31 C         140.0054  139.9684  167.7651 C.ar    1  UNL1        0.1022
@<TRIPOS>BOND
     1     1     2    1
     2     2     3    2
     3     3     4    1
     4     4    14    1
     5    14    15   ar
     6    15    16   ar
     7    16    17   ar
     8    17    18   ar
     9    18    19   ar
    10     4    20    1
    11    20    21   ar
    12    21    22   ar
    13    22    23   ar
    14    23    24   ar
    15    24    26    1
    16    26    27   ar
    17    27    28   ar
    18    28    29   ar
    19    29    30   ar
    20    30    31   ar
    21    24    25   ar
    22     4     5    1
    23     5     6   ar
    24     6     7   ar
    25     7     8   ar
    26     8     9   ar
    27     9    10    1
    28     9    11   ar
    29    11     2    1
    30    19    14   ar
    31    25    20   ar
    32    11     5   ar
    33    31    26   ar
    34     1    12    1
    35     1    13    1
@<TRIPOS>MOLECULE
*****
 31 35 0 0 0
SMALL
GASTEIGER

@<TRIPOS>ATOM
      1 N         143.3881  142.9137  170.0574 N.pl3   1  UNL1       -0.2464
      2 C         142.7710  142.1691  168.9108 C.2     1  UNL1        0.3157
      3 N         143.3616  142.0130  167.5408 N.2     1  UNL1       -0.0614
      4 C         142.4105  141.1973  166.7162 C.3     1  UNL1        0.2309
      5 C         141.2320  140.8492  167.5765 C.ar    1  UNL1        0.0390
      6 C         139.9849  140.0630  167.3000 C.ar    1  UNL1        0.0008
      7 C         138.9606  139.8774  168.3799 C.ar    1  UNL1        0.0021
      8 C         139.1833  140.4780  169.7362 C.ar    1  UNL1        0.0299
      9 C         140.4305  141.2642  170.0127 C.ar    1  UNL1        0.1470
     10 F         140.6532  141.8648  171.3691 F       1  UNL1       -0.2039
     11 C         141.4548  141.4498  168.9328 C.ar    1  UNL1        0.1094
     12 H         144.2604  143.3559  169.9447 H       1  UNL1        0.2884
     13 H         142.9207  142.9602  170.9227 H       1  UNL1        0.2884
     14 C         143.4349  141.3830  165.6363 C.ar    1  UNL1        0.0328
     15 C         143.7745  142.7620  165.1537 C.ar    1  UNL1        0.0211
     16 C         144.7989  142.9476  164.0739 C.ar    1  UNL1        0.0987
     17 N         145.4837  141.7542  163.4766 N.ar    1  UNL1       -0.2423
     18 C         145.1442  140.3752  163.9592 C.ar    1  UNL1        0.0987
     19 C         144.1198  140.1896  165.0390 C.ar    1  UNL1        0.0211
     20 C         141.6736  140.4204  165.6658 C.ar    1  UNL1        0.0297
     21 C         141.6243  138.9229  165.7369 C.ar    1  UNL1        0.0004
     22 C         140.8874  138.1460  164.6865 C.ar    1  UNL1       -0.0002
     23 C         140.1997  138.8666  163.5650 C.ar    1  UNL1        0.0001
     24 C         140.2489  140.3641  163.4938 C.ar    1  UNL1        0.0028
     25 C         140.9859  141.1410  164.5443 C.ar    1  UNL1        0.0005
     26 C         139.5613  141.0848  162.3723 C.ar    1  UNL1        0.0384
     27 C         139.9520  140.8066  160.9510 C.ar    1  UNL1        0.1022
     28 N         139.2645  141.5272  159.8295 N.ar    1  UNL1       -0.2224
     29 C         138.1862  142.5260  160.1292 C.ar    1  UNL1        0.1989
     30 N         137.7955  142.8041  161.5505 N.ar    1  UNL1       -0.2224
     31 C         138.4831  142.0835  162.6721 C.ar    1  UNL1        0.1022
@<TRIPOS>BOND
     1     1     2    1
     2     2     3    2
     3     3     4    1
     4     4    14    1
     5    14    15   ar
     6    15    16   ar
     7    16    17   ar
     8    17    18   ar
     9    18    19   ar
    10     4    20    1
    11    20    21   ar
    12    21    22   ar
    13    22    23   ar
    14    23    24   ar
    15    24    26    1
    16    26    27   ar
    17    27    28   ar
    18    28    29   ar
    19    29    30   ar
    20    30    31   ar
    21    24    25   ar
    22     4     5    1
    23     5     6   ar
    24     6     7   ar
    25     7     8   ar
    26     8     9   ar
    27     9    10    1
    28     9    11   ar
    29    11     2    1
    30    19    14   ar
    31    25    20   ar
    32    11     5   ar
    33    31    26   ar
    34     1    12    1
    35     1    13    1
@<TRIPOS>MOLECULE
*****
 31 35 0 0 0
SMALL
GASTEIGER

@<TRIPOS>ATOM
      1 N         141.4684  141.8232  169.1562 N.pl3   1  UNL1       -0.2464
      2 C         141.3012  141.1247  167.8393 C.2     1  UNL1        0.3157
      3 N         142.2533  141.1857  166.6818 N.2     1  UNL1       -0.0614
      4 C         141.6930  140.3413  165.5759 C.3     1  UNL1        0.2309
      5 C         140.3946  139.7585  166.0499 C.ar    1  UNL1        0.0390
      6 C         139.4016  138.8495  165.3884 C.ar    1  UNL1        0.0008
      7 C         138.1664  138.4247  166.1258 C.ar    1  UNL1        0.0021
      8 C         137.9243  138.9089  167.5247 C.ar    1  UNL1        0.0299
      9 C         138.9173  139.8179  168.1862 C.ar    1  UNL1        0.1470
     10 F         138.6751  140.3021  169.5851 F       1  UNL1       -0.2039
     11 C         140.1525  140.2427  167.4488 C.ar    1  UNL1        0.1094
     12 H         142.2612  142.3837  169.3190 H       1  UNL1        0.2884
     13 H         140.7853  141.7211  169.8578 H       1  UNL1        0.2884
     14 C         142.9282  140.7662  164.8385 C.ar    1  UNL1        0.0328
     15 C         142.9806  142.1105  164.1752 C.ar    1  UNL1        0.0211
     16 C         144.2159  142.5353  163.4378 C.ar    1  UNL1        0.0987
     17 N         145.3987  141.6158  163.3637 N.ar    1  UNL1       -0.2423
     18 C         145.3462  140.2715  164.0270 C.ar    1  UNL1        0.0987
     19 C         144.1110  139.8467  164.7644 C.ar    1  UNL1        0.0211
     20 C         141.3909  139.5858  164.3158 C.ar    1  UNL1        0.0297
     21 C         141.8066  138.1505  164.1839 C.ar    1  UNL1        0.0004
     22 C         141.5046  137.3950  162.9238 C.ar    1  UNL1       -0.0002
     23 C         140.7869  138.0746  161.7955 C.ar    1  UNL1        0.0001
     24 C         140.3712  139.5098  161.9273 C.ar    1  UNL1        0.0028
     25 C         140.6733  140.2655  163.1875 C.ar    1  UNL1        0.0005
     26 C         139.6536  140.1896  160.7991 C.ar    1  UNL1        0.0384
     27 C         138.6512  139.4296  159.9818 C.ar    1  UNL1        0.1022
     28 N         137.9335  140.1092  158.8536 N.ar    1  UNL1       -0.2224
     29 C         138.2181  141.5489  158.5427 C.ar    1  UNL1        0.1989
     30 N         139.2204  142.3088  159.3600 N.ar    1  UNL1       -0.2224
     31 C         139.9381  141.6291  160.4882 C.ar    1  UNL1        0.1022
@<TRIPOS>BOND
     1     1     2    1
     2     2     3    2
     3     3     4    1
     4     4    14    1
     5    14    15   ar
     6    15    16   ar
     7    16    17   ar
     8    17    18   ar
     9    18    19   ar
    10     4    20    1
    11    20    21   ar
    12    21    22   ar
    13    22    23   ar
    14    23    24   ar
    15    24    26    1
    16    26    27   ar
    17    27    28   ar
    18    28    29   ar
    19    29    30   ar
    20    30    31   ar
    21    24    25   ar
    22     4     5    1
    23     5     6   ar
    24     6     7   ar
    25     7     8   ar
    26     8     9   ar
    27     9    10    1
    28     9    11   ar
    29    11     2    1
    30    19    14   ar
    31    25    20   ar
    32    11     5   ar
    33    31    26   ar
    34     1    12    1
    35     1    13    1
@<TRIPOS>MOLECULE
*****
 31 35 0 0 0
SMALL
GASTEIGER

@<TRIPOS>ATOM
      1 N         138.3609  142.9611  160.1347 N.pl3   1  UNL1       -0.2464
      2 C         139.1313  142.6754  161.3896 C.2     1  UNL1        0.3157
      3 N         139.1714  141.3663  162.1208 N.2     1  UNL1       -0.0614
      4 C         140.0618  141.5304  163.3167 C.3     1  UNL1        0.2309
      5 C         140.5721  142.9410  163.3246 C.ar    1  UNL1        0.0390
      6 C         141.4861  143.6724  164.2624 C.ar    1  UNL1        0.0008
      7 C         141.8251  145.1115  164.0092 C.ar    1  UNL1        0.0021
      8 C         141.2500  145.8191  162.8181 C.ar    1  UNL1        0.0299
      9 C         140.3360  145.0876  161.8803 C.ar    1  UNL1        0.1470
     10 F         139.7609  145.7953  160.6893 F       1  UNL1       -0.2039
     11 C         139.9970  143.6486  162.1335 C.ar    1  UNL1        0.1094
     12 H         137.8180  142.2532  159.7184 H       1  UNL1        0.2884
     13 H         138.3981  143.8567  159.7274 H       1  UNL1        0.2884
     14 C         139.7228  140.0913  163.5699 C.ar    1  UNL1        0.0328
     15 C         138.8779  139.7164  164.7512 C.ar    1  UNL1        0.0211
     16 C         138.5390  138.2773  165.0043 C.ar    1  UNL1        0.0987
     17 N         139.0449  137.2132  164.0762 N.ar    1  UNL1       -0.2423
     18 C         139.8898  137.5880  162.8949 C.ar    1  UNL1        0.0987
     19 C         140.2288  139.0271  162.6417 C.ar    1  UNL1        0.0211
     20 C         140.8814  141.3937  164.5655 C.ar    1  UNL1        0.0297
     21 C         142.2756  140.8451  164.4914 C.ar    1  UNL1        0.0004
     22 C         143.0952  140.7084  165.7402 C.ar    1  UNL1       -0.0002
     23 C         142.5206  141.1202  167.0632 C.ar    1  UNL1        0.0001
     24 C         141.1265  141.6688  167.1374 C.ar    1  UNL1        0.0028
     25 C         140.3068  141.8056  165.8885 C.ar    1  UNL1        0.0005
     26 C         140.5519  142.0807  168.4603 C.ar    1  UNL1        0.0384
     27 C         140.6531  143.5081  168.9102 C.ar    1  UNL1        0.1022
     28 N         140.0785  143.9201  170.2330 N.ar    1  UNL1       -0.2224
     29 C         139.4028  142.9046  171.1062 C.ar    1  UNL1        0.1989
     30 N         139.3016  141.4772  170.6563 N.ar    1  UNL1       -0.2224
     31 C         139.8762  141.0652  169.3334 C.ar    1  UNL1        0.1022
@<TRIPOS>BOND
     1     1     2    1
     2     2     3    2
     3     3     4    1
     4     4    14    1
     5    14    15   ar
     6    15    16   ar
     7    16    17   ar
     8    17    18   ar
     9    18    19   ar
    10     4    20    1
    11    20    21   ar
    12    21    22   ar
    13    22    23   ar
    14    23    24   ar
    15    24    26    1
    16    26    27   ar
    17    27    28   ar
    18    28    29   ar
    19    29    30   ar
    20    30    31   ar
    21    24    25   ar
    22     4     5    1
    23     5     6   ar
    24     6     7   ar
    25     7     8   ar
    26     8     9   ar
    27     9    10    1
    28     9    11   ar
    29    11     2    1
    30    19    14   ar
    31    25    20   ar
    32    11     5   ar
    33    31    26   ar
    34     1    12    1
    35     1    13    1
