@<TRIPOS>MOLECULE
*****
 40 44 0 0 0
SMALL
GASTEIGER

@<TRIPOS>ATOM
      1 O         145.9304  141.6300  162.8272 O.2     1  UNL1       -0.2749
      2 C         144.7810  142.5458  163.1275 C.2     1  UNL1        0.2256
      3 N         143.8696  142.9925  162.0231 N.am    1  UNL1       -0.2766
      4 C         142.7202  143.9084  162.3234 C.3     1  UNL1        0.1126
      5 C         141.8087  144.3551  161.2190 C.3     1  UNL1        0.1173
      6 N         142.0467  143.8860  159.8143 N.3     1  UNL1       -0.1520
      7 C         143.1961  142.9702  159.5139 C.3     1  UNL1        0.1173
      8 C         144.1075  142.5235  160.6183 C.3     1  UNL1        0.1126
      9 C         144.5430  143.0149  164.5322 C.3     1  UNL1        0.0811
     10 C         144.9062  143.9051  165.6836 C.3     1  UNL1        0.0142
     11 C         143.7677  142.9371  165.8140 C.3     1  UNL1        0.0314
     12 C         142.6628  142.3334  166.6292 C.ar    1  UNL1       -0.0220
     13 C         142.8483  142.1196  168.1023 C.ar    1  UNL1       -0.0043
     14 C         141.7434  141.5158  168.9175 C.ar    1  UNL1        0.0035
     15 C         140.4530  141.1259  168.2596 C.ar    1  UNL1        0.0714
     16 C         140.2674  141.3397  166.7866 C.ar    1  UNL1        0.0035
     17 C         141.3724  141.9434  165.9714 C.ar    1  UNL1       -0.0043
     18 C         139.3480  140.5221  169.0749 C.3     1  UNL1        0.4186
     19 F         138.2431  139.9184  169.8902 F       1  UNL1       -0.1659
     20 F         139.0951  139.5186  167.9892 F       1  UNL1       -0.1659
     21 F         139.6009  141.5256  170.1607 F       1  UNL1       -0.1659
     22 S         141.1353  144.3327  158.7099 S.O2    1  UNL1        0.0634
     23 O         140.4702  142.9882  158.7149 O.2     1  UNL1       -0.1528
     24 O         141.8004  145.6772  158.7048 O.2     1  UNL1       -0.1528
     25 C         140.2239  144.7795  157.6054 C.ar    1  UNL1        0.1222
     26 C         140.1052  146.2377  157.2746 C.ar    1  UNL1        0.0214
     27 C         139.1938  146.6844  156.1702 C.ar    1  UNL1        0.0200
     28 C         138.4011  145.6729  155.3966 C.ar    1  UNL1        0.0055
     29 C         138.5197  144.2147  155.7275 C.ar    1  UNL1        0.0728
     30 C         139.4311  143.7680  156.8319 C.ar    1  UNL1        0.0238
     31 C         139.0752  148.1427  155.8392 C.ar    1  UNL1        0.0964
     32 C         139.5355  148.7995  154.5717 C.ar    1  UNL1        0.1422
     33 N         139.2202  150.2629  154.6669 N.ar    1  UNL1       -0.1274
     34 N         138.5650  150.5105  155.9933 N.ar    1  UNL1       -0.0672
     35 N         138.4754  149.2001  156.7178 N.ar    1  UNL1       -0.2565
     36 H         138.0905  149.0590  157.6129 H       1  UNL1        0.1907
     37 C         137.7269  143.2032  154.9539 C.3     1  UNL1        0.4186
     38 F         136.9341  142.1917  154.1804 F       1  UNL1       -0.1659
     39 F         136.7259  144.2615  154.5961 F       1  UNL1       -0.1659
     40 F         138.7279  142.1450  155.3118 F       1  UNL1       -0.1659
@<TRIPOS>BOND
     1     1     2    2
     2     9     2    1
     3     9    10    1
     4    10    11    1
     5    11    12    1
     6    12    13   ar
     7    13    14   ar
     8    14    15   ar
     9    15    18    1
    10    18    19    1
    11    18    20    1
    12    18    21    1
    13    15    16   ar
    14    16    17   ar
    15     2     3   am
    16     3     4    1
    17     4     5    1
    18     5     6    1
    19     6    22    1
    20    22    23    2
    21    22    24    2
    22    22    25    1
    23    25    26   ar
    24    26    27   ar
    25    27    31    1
    26    31    32   ar
    27    32    33   ar
    28    33    34   ar
    29    34    35   ar
    30    27    28   ar
    31    28    29   ar
    32    29    37    1
    33    37    38    1
    34    37    39    1
    35    37    40    1
    36    29    30   ar
    37     6     7    1
    38     7     8    1
    39    11     9    1
    40    17    12   ar
    41     8     3    1
    42    30    25   ar
    43    35    31   ar
    44    35    36    1
@<TRIPOS>MOLECULE
*****
 40 44 0 0 0
SMALL
GASTEIGER

@<TRIPOS>ATOM
      1 O         141.0048  136.7347  163.1751 O.2     1  UNL1       -0.2749
      2 C         139.9089  137.7475  163.3277 C.2     1  UNL1        0.2256
      3 N         139.4620  138.5531  162.1439 N.am    1  UNL1       -0.2766
      4 C         138.3661  139.5660  162.2965 C.3     1  UNL1        0.1126
      5 C         137.9193  140.3716  161.1128 C.3     1  UNL1        0.1173
      6 N         138.5683  140.1644  159.7764 N.3     1  UNL1       -0.1520
      7 C         139.6641  139.1516  159.6238 C.3     1  UNL1        0.1173
      8 C         140.1110  138.3459  160.8075 C.3     1  UNL1        0.1126
      9 C         139.2599  137.9547  164.6640 C.3     1  UNL1        0.0811
     10 C         138.2697  137.5290  165.7072 C.3     1  UNL1        0.0142
     11 C         139.1259  138.7393  165.9354 C.3     1  UNL1        0.0314
     12 C         139.5429  139.8912  166.8011 C.ar    1  UNL1       -0.0220
     13 C         139.4639  139.7741  168.2945 C.ar    1  UNL1       -0.0043
     14 C         139.8809  140.9258  169.1601 C.ar    1  UNL1        0.0035
     15 C         140.3769  142.1947  168.5325 C.ar    1  UNL1        0.0714
     16 C         140.4559  142.3119  167.0392 C.ar    1  UNL1        0.0035
     17 C         140.0389  141.1601  166.1735 C.ar    1  UNL1       -0.0043
     18 C         140.7939  143.3466  169.3983 C.3     1  UNL1        0.4186
     19 F         141.2108  144.4984  170.2640 F       1  UNL1       -0.1659
     20 F         141.7184  142.4415  170.1572 F       1  UNL1       -0.1659
     21 F         139.8694  144.2517  168.6393 F       1  UNL1       -0.1659
     22 S         138.1214  140.9700  158.5926 S.O2    1  UNL1        0.0634
     23 O         138.1595  142.2164  159.4264 O.2     1  UNL1       -0.1528
     24 O         138.0834  139.7237  157.7588 O.2     1  UNL1       -0.1528
     25 C         137.6746  141.7756  157.4088 C.ar    1  UNL1        0.1222
     26 C         138.3743  143.0575  157.0667 C.ar    1  UNL1        0.0214
     27 C         137.9274  143.8630  155.8829 C.ar    1  UNL1        0.0200
     28 C         136.7808  143.3866  155.0412 C.ar    1  UNL1        0.0055
     29 C         136.0811  142.1048  155.3834 C.ar    1  UNL1        0.0728
     30 C         136.5279  141.2992  156.5672 C.ar    1  UNL1        0.0238
     31 C         138.6272  145.1449  155.5407 C.ar    1  UNL1        0.0964
     32 C         140.0785  145.4460  155.7711 C.ar    1  UNL1        0.1422
     33 N         140.3467  146.8380  155.2808 N.ar    1  UNL1       -0.1274
     34 N         139.0612  147.3972  154.7474 N.ar    1  UNL1       -0.0672
     35 N         137.9985  146.3508  154.9080 N.ar    1  UNL1       -0.2565
     36 H         137.0541  146.4399  154.6444 H       1  UNL1        0.1907
     37 C         134.9344  141.6284  154.5418 C.3     1  UNL1        0.4186
     38 F         133.7878  141.1521  153.7001 F       1  UNL1       -0.1659
     39 F         135.5467  142.2814  153.3381 F       1  UNL1       -0.1659
     40 F         134.3222  140.9754  155.7454 F       1  UNL1       -0.1659
@<TRIPOS>BOND
     1     1     2    2
     2     9     2    1
     3     9    10    1
     4    10    11    1
     5    11    12    1
     6    12    13   ar
     7    13    14   ar
     8    14    15   ar
     9    15    18    1
    10    18    19    1
    11    18    20    1
    12    18    21    1
    13    15    16   ar
    14    16    17   ar
    15     2     3   am
    16     3     4    1
    17     4     5    1
    18     5     6    1
    19     6    22    1
    20    22    23    2
    21    22    24    2
    22    22    25    1
    23    25    26   ar
    24    26    27   ar
    25    27    31    1
    26    31    32   ar
    27    32    33   ar
    28    33    34   ar
    29    34    35   ar
    30    27    28   ar
    31    28    29   ar
    32    29    37    1
    33    37    38    1
    34    37    39    1
    35    37    40    1
    36    29    30   ar
    37     6     7    1
    38     7     8    1
    39    11     9    1
    40    17    12   ar
    41     8     3    1
    42    30    25   ar
    43    35    31   ar
    44    35    36    1
@<TRIPOS>MOLECULE
*****
 40 44 0 0 0
SMALL
GASTEIGER

@<TRIPOS>ATOM
      1 O         142.8605  144.7044  158.2781 O.2     1  UNL1       -0.2749
      2 C         141.4477  144.3045  158.5849 C.2     1  UNL1        0.2256
      3 N         141.1184  143.6646  159.9010 N.am    1  UNL1       -0.2766
      4 C         139.7055  143.2648  160.2079 C.3     1  UNL1        0.1126
      5 C         139.3762  142.6249  161.5239 C.3     1  UNL1        0.1173
      6 N         140.4596  142.3848  162.5332 N.3     1  UNL1       -0.1520
      7 C         141.8724  142.7847  162.2264 C.3     1  UNL1        0.1173
      8 C         142.2018  143.4246  160.9102 C.3     1  UNL1        0.1126
      9 C         140.3643  144.5445  157.5757 C.3     1  UNL1        0.0811
     10 C         139.1429  144.0727  156.8440 C.3     1  UNL1        0.0142
     11 C         139.7092  145.4322  156.5594 C.3     1  UNL1        0.0314
     12 C         139.6579  146.7296  155.8083 C.ar    1  UNL1       -0.0220
     13 C         140.4175  146.8833  154.5240 C.ar    1  UNL1       -0.0043
     14 C         140.3662  148.1807  153.7730 C.ar    1  UNL1        0.0035
     15 C         139.5554  149.3245  154.3063 C.ar    1  UNL1        0.0714
     16 C         138.7958  149.1708  155.5906 C.ar    1  UNL1        0.0035
     17 C         138.8471  147.8734  156.3416 C.ar    1  UNL1       -0.0043
     18 C         139.5041  150.6219  153.5552 C.3     1  UNL1        0.4186
     19 F         139.4529  151.9193  152.8042 F       1  UNL1       -0.1659
     20 F         139.2486  149.8739  152.2804 F       1  UNL1       -0.1659
     21 F         139.7596  151.3699  154.8300 F       1  UNL1       -0.1659
     22 S         140.1303  141.7450  163.8492 S.O2    1  UNL1        0.0634
     23 O         140.9881  140.5676  163.4915 O.2     1  UNL1       -0.1528
     24 O         139.2725  142.9223  164.2070 O.2     1  UNL1       -0.1528
     25 C         139.8009  141.1051  165.1654 C.ar    1  UNL1        0.1222
     26 C         140.1934  141.7796  166.4463 C.ar    1  UNL1        0.0214
     27 C         139.8640  141.1397  167.7624 C.ar    1  UNL1        0.0200
     28 C         139.1421  139.8254  167.7974 C.ar    1  UNL1        0.0055
     29 C         138.7495  139.1509  166.5165 C.ar    1  UNL1        0.0728
     30 C         139.0789  139.7907  165.2004 C.ar    1  UNL1        0.0238
     31 C         140.2566  141.8142  169.0434 C.ar    1  UNL1        0.0964
     32 C         141.5014  142.6199  169.2702 C.ar    1  UNL1        0.1422
     33 N         141.4873  143.1050  170.6895 N.ar    1  UNL1       -0.1274
     34 N         140.2339  142.5992  171.3399 N.ar    1  UNL1       -0.0672
     35 N         139.4733  141.8015  170.3225 N.ar    1  UNL1       -0.2565
     36 H         138.6112  141.3489  170.4686 H       1  UNL1        0.1907
     37 C         138.0276  137.8365  166.5516 C.3     1  UNL1        0.4186
     38 F         137.3056  136.5221  166.5866 F       1  UNL1       -0.1659
     39 F         138.9229  137.3157  165.4666 F       1  UNL1       -0.1659
     40 F         137.1322  138.3573  167.6365 F       1  UNL1       -0.1659
@<TRIPOS>BOND
     1     1     2    2
     2     9     2    1
     3     9    10    1
     4    10    11    1
     5    11    12    1
     6    12    13   ar
     7    13    14   ar
     8    14    15   ar
     9    15    18    1
    10    18    19    1
    11    18    20    1
    12    18    21    1
    13    15    16   ar
    14    16    17   ar
    15     2     3   am
    16     3     4    1
    17     4     5    1
    18     5     6    1
    19     6    22    1
    20    22    23    2
    21    22    24    2
    22    22    25    1
    23    25    26   ar
    24    26    27   ar
    25    27    31    1
    26    31    32   ar
    27    32    33   ar
    28    33    34   ar
    29    34    35   ar
    30    27    28   ar
    31    28    29   ar
    32    29    37    1
    33    37    38    1
    34    37    39    1
    35    37    40    1
    36    29    30   ar
    37     6     7    1
    38     7     8    1
    39    11     9    1
    40    17    12   ar
    41     8     3    1
    42    30    25   ar
    43    35    31   ar
    44    35    36    1
@<TRIPOS>MOLECULE
*****
 40 44 0 0 0
SMALL
GASTEIGER

@<TRIPOS>ATOM
      1 O         145.7963  141.5728  162.7744 O.2     1  UNL1       -0.2749
      2 C         144.6635  142.5116  163.0666 C.2     1  UNL1        0.2256
      3 N         143.7461  142.9467  161.9625 N.am    1  UNL1       -0.2766
      4 C         142.6133  143.8855  162.2547 C.3     1  UNL1        0.1126
      5 C         141.6959  144.3206  161.1506 C.3     1  UNL1        0.1173
      6 N         141.9113  143.8168  159.7542 N.3     1  UNL1       -0.1520
      7 C         143.0441  142.8780  159.4620 C.3     1  UNL1        0.1173
      8 C         143.9615  142.4429  160.5661 C.3     1  UNL1        0.1126
      9 C         144.4481  143.0154  164.4630 C.3     1  UNL1        0.0811
     10 C         144.8300  143.9332  165.5862 C.3     1  UNL1        0.0142
     11 C         143.6930  142.9700  165.7583 C.3     1  UNL1        0.0314
     12 C         142.6007  142.3877  166.6055 C.ar    1  UNL1       -0.0220
     13 C         142.8921  141.9553  168.0119 C.ar    1  UNL1       -0.0043
     14 C         141.7997  141.3730  168.8590 C.ar    1  UNL1        0.0035
     15 C         140.4160  141.2232  168.2997 C.ar    1  UNL1        0.0714
     16 C         140.1246  141.6556  166.8933 C.ar    1  UNL1        0.0035
     17 C         141.2169  142.2379  166.0462 C.ar    1  UNL1       -0.0043
     18 C         139.3236  140.6409  169.1470 C.3     1  UNL1        0.4186
     19 F         138.2312  140.0586  169.9941 F       1  UNL1       -0.1659
     20 F         139.3115  139.4120  168.2869 F       1  UNL1       -0.1659
     21 F         139.3356  141.8697  170.0070 F       1  UNL1       -0.1659
     22 S         140.9940  144.2519  158.6501 S.O2    1  UNL1        0.0634
     23 O         140.5431  145.4151  159.4830 O.2     1  UNL1       -0.1528
     24 O         141.4448  143.0887  157.8172 O.2     1  UNL1       -0.1528
     25 C         140.0766  144.6869  157.5459 C.ar    1  UNL1        0.1222
     26 C         139.1812  143.6866  156.8768 C.ar    1  UNL1        0.0214
     27 C         138.2639  144.1217  155.7727 C.ar    1  UNL1        0.0200
     28 C         138.2419  145.5570  155.3376 C.ar    1  UNL1        0.0055
     29 C         139.1373  146.5573  156.0066 C.ar    1  UNL1        0.0728
     30 C         140.0546  146.1223  157.1108 C.ar    1  UNL1        0.0238
     31 C         137.3684  143.1214  155.1035 C.ar    1  UNL1        0.0964
     32 C         137.7574  142.1974  153.9878 C.ar    1  UNL1        0.1422
     33 N         136.5562  141.3745  153.6274 N.ar    1  UNL1       -0.1274
     34 N         135.4249  141.7899  154.5204 N.ar    1  UNL1       -0.0672
     35 N         135.9269  142.8695  155.4327 N.ar    1  UNL1       -0.2565
     36 H         135.4024  143.3317  156.1259 H       1  UNL1        0.1907
     37 C         139.1153  147.9927  155.5715 C.3     1  UNL1        0.4186
     38 F         139.0934  149.4280  155.1364 F       1  UNL1       -0.1659
     39 F         139.4876  147.5764  154.1794 F       1  UNL1       -0.1659
     40 F         138.7431  148.4090  156.9637 F       1  UNL1       -0.1659
@<TRIPOS>BOND
     1     1     2    2
     2     9     2    1
     3     9    10    1
     4    10    11    1
     5    11    12    1
     6    12    13   ar
     7    13    14   ar
     8    14    15   ar
     9    15    18    1
    10    18    19    1
    11    18    20    1
    12    18    21    1
    13    15    16   ar
    14    16    17   ar
    15     2     3   am
    16     3     4    1
    17     4     5    1
    18     5     6    1
    19     6    22    1
    20    22    23    2
    21    22    24    2
    22    22    25    1
    23    25    26   ar
    24    26    27   ar
    25    27    31    1
    26    31    32   ar
    27    32    33   ar
    28    33    34   ar
    29    34    35   ar
    30    27    28   ar
    31    28    29   ar
    32    29    37    1
    33    37    38    1
    34    37    39    1
    35    37    40    1
    36    29    30   ar
    37     6     7    1
    38     7     8    1
    39    11     9    1
    40    17    12   ar
    41     8     3    1
    42    30    25   ar
    43    35    31   ar
    44    35    36    1
@<TRIPOS>MOLECULE
*****
 40 44 0 0 0
SMALL
GASTEIGER

@<TRIPOS>ATOM
      1 O         143.0206  144.6705  158.3009 O.2     1  UNL1       -0.2749
      2 C         141.5882  144.3868  158.6445 C.2     1  UNL1        0.2256
      3 N         141.2449  143.7403  159.9538 N.am    1  UNL1       -0.2766
      4 C         139.8126  143.4566  160.2974 C.3     1  UNL1        0.1126
      5 C         139.4692  142.8101  161.6066 C.3     1  UNL1        0.1173
      6 N         140.5582  142.4473  162.5723 N.3     1  UNL1       -0.1520
      7 C         141.9905  142.7309  162.2287 C.3     1  UNL1        0.1173
      8 C         142.3339  143.3775  160.9194 C.3     1  UNL1        0.1126
      9 C         140.4993  144.7496  157.6789 C.3     1  UNL1        0.0811
     10 C         139.8530  145.7483  156.7651 C.3     1  UNL1        0.0142
     11 C         139.2595  144.3794  156.9200 C.3     1  UNL1        0.0314
     12 C         138.2011  143.3753  156.5713 C.ar    1  UNL1       -0.0220
     13 C         137.2369  143.6580  155.4576 C.ar    1  UNL1       -0.0043
     14 C         136.1786  142.6539  155.1089 C.ar    1  UNL1        0.0035
     15 C         136.0844  141.3671  155.8740 C.ar    1  UNL1        0.0714
     16 C         137.0486  141.0844  156.9877 C.ar    1  UNL1        0.0035
     17 C         138.1069  142.0885  157.3363 C.ar    1  UNL1       -0.0043
     18 C         135.0260  140.3629  155.5252 C.3     1  UNL1        0.4186
     19 F         133.9676  139.3588  155.1765 F       1  UNL1       -0.1659
     20 F         133.9635  141.3763  155.8319 F       1  UNL1       -0.1659
     21 F         136.0884  139.3496  155.2186 F       1  UNL1       -0.1659
     22 S         140.2149  141.8008  163.8815 S.O2    1  UNL1        0.0634
     23 O         139.0936  141.0558  163.2197 O.2     1  UNL1       -0.1528
     24 O         141.3360  142.5457  164.5433 O.2     1  UNL1       -0.1528
     25 C         139.8716  141.1543  165.1908 C.ar    1  UNL1        0.1222
     26 C         140.2677  141.8127  166.4790 C.ar    1  UNL1        0.0214
     27 C         139.9244  141.1662  167.7883 C.ar    1  UNL1        0.0200
     28 C         139.1849  139.8613  167.8093 C.ar    1  UNL1        0.0055
     29 C         138.7888  139.2029  166.5211 C.ar    1  UNL1        0.0728
     30 C         139.1321  139.8494  165.2118 C.ar    1  UNL1        0.0238
     31 C         140.3205  141.8246  169.0766 C.ar    1  UNL1        0.0964
     32 C         141.5316  142.6830  169.2921 C.ar    1  UNL1        0.1422
     33 N         141.5347  143.1291  170.7242 N.ar    1  UNL1       -0.1274
     34 N         140.3255  142.5463  171.3938 N.ar    1  UNL1       -0.0672
     35 N         139.5752  141.7401  170.3754 N.ar    1  UNL1       -0.2565
     36 H         138.7401  141.2429  170.5321 H       1  UNL1        0.1907
     37 C         138.0494  137.8980  166.5421 C.3     1  UNL1        0.4186
     38 F         137.3099  136.5931  166.5631 F       1  UNL1       -0.1659
     39 F         138.9439  137.3736  165.4582 F       1  UNL1       -0.1659
     40 F         137.1548  138.4224  167.6259 F       1  UNL1       -0.1659
@<TRIPOS>BOND
     1     1     2    2
     2     9     2    1
     3     9    10    1
     4    10    11    1
     5    11    12    1
     6    12    13   ar
     7    13    14   ar
     8    14    15   ar
     9    15    18    1
    10    18    19    1
    11    18    20    1
    12    18    21    1
    13    15    16   ar
    14    16    17   ar
    15     2     3   am
    16     3     4    1
    17     4     5    1
    18     5     6    1
    19     6    22    1
    20    22    23    2
    21    22    24    2
    22    22    25    1
    23    25    26   ar
    24    26    27   ar
    25    27    31    1
    26    31    32   ar
    27    32    33   ar
    28    33    34   ar
    29    34    35   ar
    30    27    28   ar
    31    28    29   ar
    32    29    37    1
    33    37    38    1
    34    37    39    1
    35    37    40    1
    36    29    30   ar
    37     6     7    1
    38     7     8    1
    39    11     9    1
    40    17    12   ar
    41     8     3    1
    42    30    25   ar
    43    35    31   ar
    44    35    36    1
@<TRIPOS>MOLECULE
*****
 40 44 0 0 0
SMALL
GASTEIGER

@<TRIPOS>ATOM
      1 O         144.3995  139.9101  157.5432 O.2     1  UNL1       -0.2749
      2 C         143.2013  139.1259  157.9898 C.2     1  UNL1        0.2256
      3 N         142.6955  139.2644  159.3951 N.am    1  UNL1       -0.2766
      4 C         141.4973  138.4801  159.8417 C.3     1  UNL1        0.1126
      5 C         140.9915  138.6186  161.2470 C.3     1  UNL1        0.1173
      6 N         141.6838  139.5413  162.2058 N.3     1  UNL1       -0.1520
      7 C         142.8819  140.3256  161.7592 C.3     1  UNL1        0.1173
      8 C         143.3878  140.1871  160.3538 C.3     1  UNL1        0.1126
      9 C         142.5090  138.2031  157.0310 C.3     1  UNL1        0.0811
     10 C         141.4576  137.9637  155.9882 C.3     1  UNL1        0.0142
     11 C         142.3612  136.8443  156.4131 C.3     1  UNL1        0.0314
     12 C         142.7976  135.4135  156.3017 C.ar    1  UNL1       -0.0220
     13 C         143.4291  134.7283  157.4771 C.ar    1  UNL1       -0.0043
     14 C         143.8654  133.2975  157.3657 C.ar    1  UNL1        0.0035
     15 C         143.6703  132.5520  156.0788 C.ar    1  UNL1        0.0714
     16 C         143.0388  133.2372  154.9034 C.ar    1  UNL1        0.0035
     17 C         142.6024  134.6679  155.0148 C.ar    1  UNL1       -0.0043
     18 C         144.1067  131.1211  155.9674 C.3     1  UNL1        0.4186
     19 F         144.5431  129.6904  155.8560 F       1  UNL1       -0.1659
     20 F         142.6829  130.7040  155.7465 F       1  UNL1       -0.1659
     21 F         145.5304  131.5382  156.1883 F       1  UNL1       -0.1659
     22 S         141.1780  139.6798  163.6111 S.O2    1  UNL1        0.0634
     23 O         140.3622  138.4327  163.4404 O.2     1  UNL1       -0.1528
     24 O         141.9938  140.9270  163.7818 O.2     1  UNL1       -0.1528
     25 C         140.6722  139.8184  165.0164 C.ar    1  UNL1        0.1222
     26 C         141.3933  140.7037  165.9892 C.ar    1  UNL1        0.0214
     27 C         140.8874  140.8422  167.3945 C.ar    1  UNL1        0.0200
     28 C         139.6606  140.0954  167.8271 C.ar    1  UNL1        0.0055
     29 C         138.9395  139.2101  166.8543 C.ar    1  UNL1        0.0728
     30 C         139.4453  139.0716  165.4490 C.ar    1  UNL1        0.0238
     31 C         141.6085  141.7275  168.3673 C.ar    1  UNL1        0.0964
     32 C         140.9744  142.5419  169.4557 C.ar    1  UNL1        0.1422
     33 N         142.0642  143.2716  170.1836 N.ar    1  UNL1       -0.1274
     34 N         143.3719  142.9082  169.5450 N.ar    1  UNL1       -0.0672
     35 N         143.0902  141.9539  168.4225 N.ar    1  UNL1       -0.2565
     36 H         143.7603  141.5475  167.8266 H       1  UNL1        0.1907
     37 C         137.7127  138.4633  167.2869 C.3     1  UNL1        0.4186
     38 F         136.4858  137.7165  167.7194 F       1  UNL1       -0.1659
     39 F         137.7388  137.6797  166.0081 F       1  UNL1       -0.1659
     40 F         137.6865  139.2469  168.5656 F       1  UNL1       -0.1659
@<TRIPOS>BOND
     1     1     2    2
     2     9     2    1
     3     9    10    1
     4    10    11    1
     5    11    12    1
     6    12    13   ar
     7    13    14   ar
     8    14    15   ar
     9    15    18    1
    10    18    19    1
    11    18    20    1
    12    18    21    1
    13    15    16   ar
    14    16    17   ar
    15     2     3   am
    16     3     4    1
    17     4     5    1
    18     5     6    1
    19     6    22    1
    20    22    23    2
    21    22    24    2
    22    22    25    1
    23    25    26   ar
    24    26    27   ar
    25    27    31    1
    26    31    32   ar
    27    32    33   ar
    28    33    34   ar
    29    34    35   ar
    30    27    28   ar
    31    28    29   ar
    32    29    37    1
    33    37    38    1
    34    37    39    1
    35    37    40    1
    36    29    30   ar
    37     6     7    1
    38     7     8    1
    39    11     9    1
    40    17    12   ar
    41     8     3    1
    42    30    25   ar
    43    35    31   ar
    44    35    36    1
@<TRIPOS>MOLECULE
*****
 40 44 0 0 0
SMALL
GASTEIGER

@<TRIPOS>ATOM
      1 O         137.0824  141.2599  162.9803 O.2     1  UNL1       -0.2749
      2 C         138.1874  140.2770  163.2313 C.2     1  UNL1        0.2256
      3 N         139.0720  139.8385  162.1021 N.am    1  UNL1       -0.2766
      4 C         140.1770  138.8556  162.3531 C.3     1  UNL1        0.1126
      5 C         141.0616  138.4171  161.2239 C.3     1  UNL1        0.1173
      6 N         140.8412  138.9615  159.8436 N.3     1  UNL1       -0.1520
      7 C         139.7363  139.9443  159.5926 C.3     1  UNL1        0.1173
      8 C         138.8516  140.3828  160.7218 C.3     1  UNL1        0.1126
      9 C         138.4078  139.7326  164.6116 C.3     1  UNL1        0.0811
     10 C         138.1735  138.6663  165.6401 C.3     1  UNL1        0.0142
     11 C         139.0238  139.8562  165.9736 C.3     1  UNL1        0.0314
     12 C         139.8704  140.6145  166.9526 C.ar    1  UNL1       -0.0220
     13 C         139.6447  140.4478  168.4261 C.ar    1  UNL1       -0.0043
     14 C         140.4913  141.2061  169.4050 C.ar    1  UNL1        0.0035
     15 C         141.5636  142.1311  168.9103 C.ar    1  UNL1        0.0714
     16 C         141.7892  142.2978  167.4368 C.ar    1  UNL1        0.0035
     17 C         140.9427  141.5395  166.4580 C.ar    1  UNL1       -0.0043
     18 C         142.4102  142.8895  169.8893 C.3     1  UNL1        0.4186
     19 F         143.2567  143.6478  170.8682 F       1  UNL1       -0.1659
     20 F         143.4565  141.8173  169.8150 F       1  UNL1       -0.1659
     21 F         141.3638  143.9616  169.9636 F       1  UNL1       -0.1659
     22 S         141.7258  138.5230  158.7144 S.O2    1  UNL1        0.0634
     23 O         142.8193  138.2100  159.6924 O.2     1  UNL1       -0.1528
     24 O         140.6324  138.8359  157.7364 O.2     1  UNL1       -0.1528
     25 C         142.6104  138.0845  157.5850 C.ar    1  UNL1        0.1222
     26 C         143.4721  139.0860  156.8749 C.ar    1  UNL1        0.0214
     27 C         144.3567  138.6475  155.7457 C.ar    1  UNL1        0.0200
     28 C         144.3794  137.2074  155.3265 C.ar    1  UNL1        0.0055
     29 C         143.5177  136.2059  156.0366 C.ar    1  UNL1        0.0728
     30 C         142.6332  136.6444  157.1659 C.ar    1  UNL1        0.0238
     31 C         145.2185  139.6490  155.0355 C.ar    1  UNL1        0.0964
     32 C         145.2292  139.9134  153.5591 C.ar    1  UNL1        0.1422
     33 N         146.2382  140.9898  153.2882 N.ar    1  UNL1       -0.1274
     34 N         146.8510  141.3907  154.5973 N.ar    1  UNL1       -0.0672
     35 N         146.2207  140.5620  155.6772 N.ar    1  UNL1       -0.2565
     36 H         146.4285  140.6091  156.6383 H       1  UNL1        0.1907
     37 C         143.5405  134.7658  155.6175 C.3     1  UNL1        0.4186
     38 F         143.5633  133.3258  155.1983 F       1  UNL1       -0.1659
     39 F         144.2343  134.4043  156.8973 F       1  UNL1       -0.1659
     40 F         142.8467  135.1274  154.3376 F       1  UNL1       -0.1659
@<TRIPOS>BOND
     1     1     2    2
     2     9     2    1
     3     9    10    1
     4    10    11    1
     5    11    12    1
     6    12    13   ar
     7    13    14   ar
     8    14    15   ar
     9    15    18    1
    10    18    19    1
    11    18    20    1
    12    18    21    1
    13    15    16   ar
    14    16    17   ar
    15     2     3   am
    16     3     4    1
    17     4     5    1
    18     5     6    1
    19     6    22    1
    20    22    23    2
    21    22    24    2
    22    22    25    1
    23    25    26   ar
    24    26    27   ar
    25    27    31    1
    26    31    32   ar
    27    32    33   ar
    28    33    34   ar
    29    34    35   ar
    30    27    28   ar
    31    28    29   ar
    32    29    37    1
    33    37    38    1
    34    37    39    1
    35    37    40    1
    36    29    30   ar
    37     6     7    1
    38     7     8    1
    39    11     9    1
    40    17    12   ar
    41     8     3    1
    42    30    25   ar
    43    35    31   ar
    44    35    36    1
@<TRIPOS>MOLECULE
*****
 40 44 0 0 0
SMALL
GASTEIGER

@<TRIPOS>ATOM
      1 O         146.0542  142.8779  158.0666 O.2     1  UNL1       -0.2749
      2 C         144.8295  142.0301  158.2446 C.2     1  UNL1        0.2256
      3 N         144.2108  141.8820  159.6030 N.am    1  UNL1       -0.2766
      4 C         142.9862  141.0342  159.7810 C.3     1  UNL1        0.1126
      5 C         142.3675  140.8861  161.1394 C.3     1  UNL1        0.1173
      6 N         142.9734  141.5857  162.3198 N.3     1  UNL1       -0.1520
      7 C         144.1979  142.4335  162.1419 C.3     1  UNL1        0.1173
      8 C         144.8167  142.5816  160.7834 C.3     1  UNL1        0.1126
      9 C         144.2236  141.3305  157.0642 C.3     1  UNL1        0.0811
     10 C         143.6077  141.3846  155.6976 C.3     1  UNL1        0.0142
     11 C         143.7901  140.0646  156.3863 C.3     1  UNL1        0.0314
     12 C         143.6451  138.5716  156.3926 C.ar    1  UNL1       -0.0220
     13 C         144.3148  137.7486  155.3324 C.ar    1  UNL1       -0.0043
     14 C         144.1698  136.2557  155.3387 C.ar    1  UNL1        0.0035
     15 C         143.3550  135.5858  156.4052 C.ar    1  UNL1        0.0714
     16 C         142.6853  136.4088  157.4653 C.ar    1  UNL1        0.0035
     17 C         142.8303  137.9017  157.4590 C.ar    1  UNL1       -0.0043
     18 C         143.2100  134.0928  156.4114 C.3     1  UNL1        0.4186
     19 F         143.0650  132.5998  156.4177 F       1  UNL1       -0.1659
     20 F         143.2272  134.0848  154.9116 F       1  UNL1       -0.1659
     21 F         143.1928  134.1008  157.9113 F       1  UNL1       -0.1659
     22 S         142.3547  141.4376  163.6782 S.O2    1  UNL1        0.0634
     23 O         141.0413  141.9140  163.1320 O.2     1  UNL1       -0.1528
     24 O         143.6679  140.9613  164.2244 O.2     1  UNL1       -0.1528
     25 C         141.7360  141.2895  165.0367 C.ar    1  UNL1        0.1222
     26 C         142.3716  141.9464  166.2259 C.ar    1  UNL1        0.0214
     27 C         141.7529  141.7983  167.5843 C.ar    1  UNL1        0.0200
     28 C         140.4986  140.9932  167.7534 C.ar    1  UNL1        0.0055
     29 C         139.8630  140.3362  166.5641 C.ar    1  UNL1        0.0728
     30 C         140.4817  140.4844  165.2058 C.ar    1  UNL1        0.0238
     31 C         142.3885  142.4552  168.7737 C.ar    1  UNL1        0.0964
     32 C         141.6651  143.1570  169.8846 C.ar    1  UNL1        0.1422
     33 N         142.6886  143.6612  170.8584 N.ar    1  UNL1       -0.1274
     34 N         144.0445  143.2710  170.3493 N.ar    1  UNL1       -0.0672
     35 N         143.8590  142.5256  169.0609 N.ar    1  UNL1       -0.2565
     36 H         144.5765  142.1488  168.5019 H       1  UNL1        0.1907
     37 C         138.6088  139.5311  166.7333 C.3     1  UNL1        0.4186
     38 F         137.3545  138.7260  166.9024 F       1  UNL1       -0.1659
     39 F         138.4264  139.5025  165.2447 F       1  UNL1       -0.1659
     40 F         138.7911  139.5597  168.2219 F       1  UNL1       -0.1659
@<TRIPOS>BOND
     1     1     2    2
     2     9     2    1
     3     9    10    1
     4    10    11    1
     5    11    12    1
     6    12    13   ar
     7    13    14   ar
     8    14    15   ar
     9    15    18    1
    10    18    19    1
    11    18    20    1
    12    18    21    1
    13    15    16   ar
    14    16    17   ar
    15     2     3   am
    16     3     4    1
    17     4     5    1
    18     5     6    1
    19     6    22    1
    20    22    23    2
    21    22    24    2
    22    22    25    1
    23    25    26   ar
    24    26    27   ar
    25    27    31    1
    26    31    32   ar
    27    32    33   ar
    28    33    34   ar
    29    34    35   ar
    30    27    28   ar
    31    28    29   ar
    32    29    37    1
    33    37    38    1
    34    37    39    1
    35    37    40    1
    36    29    30   ar
    37     6     7    1
    38     7     8    1
    39    11     9    1
    40    17    12   ar
    41     8     3    1
    42    30    25   ar
    43    35    31   ar
    44    35    36    1
@<TRIPOS>MOLECULE
*****
 40 44 0 0 0
SMALL
GASTEIGER

@<TRIPOS>ATOM
      1 O         145.5542  142.6006  158.5917 O.2     1  UNL1       -0.2749
      2 C         144.0673  142.4064  158.6313 C.2     1  UNL1        0.2256
      3 N         143.3885  142.0748  159.9271 N.am    1  UNL1       -0.2766
      4 C         141.9016  141.8806  159.9667 C.3     1  UNL1        0.1126
      5 C         141.2228  141.5490  161.2626 C.3     1  UNL1        0.1173
      6 N         142.0308  141.4117  162.5189 N.3     1  UNL1       -0.1520
      7 C         143.5176  141.6059  162.4793 C.3     1  UNL1        0.1173
      8 C         144.1965  141.9375  161.1834 C.3     1  UNL1        0.1126
      9 C         143.2593  142.5437  157.3750 C.3     1  UNL1        0.0811
     10 C         142.8107  141.9959  156.0527 C.3     1  UNL1        0.0142
     11 C         142.3084  143.3293  156.5215 C.3     1  UNL1        0.0314
     12 C         141.4694  144.5528  156.2994 C.ar    1  UNL1       -0.0220
     13 C         141.1928  145.0294  154.9043 C.ar    1  UNL1       -0.0043
     14 C         140.3538  146.2528  154.6822 C.ar    1  UNL1        0.0035
     15 C         139.7915  146.9996  155.8552 C.ar    1  UNL1        0.0714
     16 C         140.0681  146.5231  157.2503 C.ar    1  UNL1        0.0035
     17 C         140.9070  145.2996  157.4724 C.ar    1  UNL1       -0.0043
     18 C         138.9524  148.2231  155.6331 C.3     1  UNL1        0.4186
     19 F         138.1135  149.4465  155.4110 F       1  UNL1       -0.1659
     20 F         138.5877  148.2372  157.0880 F       1  UNL1       -0.1659
     21 F         139.3172  148.2090  154.1782 F       1  UNL1       -0.1659
     22 S         141.3520  141.0801  163.8147 S.O2    1  UNL1        0.0634
     23 O         141.4858  142.5092  164.2505 O.2     1  UNL1       -0.1528
     24 O         141.2181  139.6511  163.3789 O.2     1  UNL1       -0.1528
     25 C         140.6731  140.7485  165.1106 C.ar    1  UNL1        0.1222
     26 C         140.9065  141.6045  166.3200 C.ar    1  UNL1        0.0214
     27 C         140.2276  141.2728  167.6158 C.ar    1  UNL1        0.0200
     28 C         139.3155  140.0852  167.7022 C.ar    1  UNL1        0.0055
     29 C         139.0822  139.2292  166.4928 C.ar    1  UNL1        0.0728
     30 C         139.7610  139.5608  165.1970 C.ar    1  UNL1        0.0238
     31 C         140.4609  142.1289  168.8254 C.ar    1  UNL1        0.0964
     32 C         141.0188  141.6662  170.1386 C.ar    1  UNL1        0.1422
     33 N         141.0799  142.8492  171.0588 N.ar    1  UNL1       -0.1274
     34 N         140.5599  144.0430  170.3142 N.ar    1  UNL1       -0.0672
     35 N         140.1773  143.5977  168.9339 N.ar    1  UNL1       -0.2565
     36 H         139.8054  144.1693  168.2238 H       1  UNL1        0.1907
     37 C         138.1700  138.0415  166.5792 C.3     1  UNL1        0.4186
     38 F         137.2579  136.8538  166.6655 F       1  UNL1       -0.1659
     39 F         138.9236  137.3815  165.4627 F       1  UNL1       -0.1659
     40 F         137.4164  138.7015  167.6956 F       1  UNL1       -0.1659
@<TRIPOS>BOND
     1     1     2    2
     2     9     2    1
     3     9    10    1
     4    10    11    1
     5    11    12    1
     6    12    13   ar
     7    13    14   ar
     8    14    15   ar
     9    15    18    1
    10    18    19    1
    11    18    20    1
    12    18    21    1
    13    15    16   ar
    14    16    17   ar
    15     2     3   am
    16     3     4    1
    17     4     5    1
    18     5     6    1
    19     6    22    1
    20    22    23    2
    21    22    24    2
    22    22    25    1
    23    25    26   ar
    24    26    27   ar
    25    27    31    1
    26    31    32   ar
    27    32    33   ar
    28    33    34   ar
    29    34    35   ar
    30    27    28   ar
    31    28    29   ar
    32    29    37    1
    33    37    38    1
    34    37    39    1
    35    37    40    1
    36    29    30   ar
    37     6     7    1
    38     7     8    1
    39    11     9    1
    40    17    12   ar
    41     8     3    1
    42    30    25   ar
    43    35    31   ar
    44    35    36    1
