@<TRIPOS>MOLECULE
*****
 35 37 0 0 0
SMALL
GASTEIGER

@<TRIPOS>ATOM
      1 C         143.8260  141.3703  163.9253 C.2     1  UNL1        0.2273
      2 O         143.0121  141.4690  165.1814 O.2     1  UNL1       -0.2748
      3 N         143.6422  140.2021  163.0025 N.am    1  UNL1       -0.2730
      4 C         144.3804  139.9689  161.7177 C.3     1  UNL1        0.0939
      5 C         143.8825  138.6847  161.1236 C.3     1  UNL1        0.0237
      6 C         142.8367  138.1243  162.0412 C.3     1  UNL1        0.0310
      7 C         142.6882  139.0621  163.2025 C.3     1  UNL1        0.1518
      8 C         141.7503  138.8901  164.3603 C.2     1  UNL1        0.2408
      9 O         142.0342  137.8550  165.4081 O.2     1  UNL1       -0.2733
     10 N         140.5284  139.7532  164.4704 N.am    1  UNL1       -0.2991
     11 H         140.3420  140.4326  163.7827 H       1  UNL1        0.1498
     12 C         139.5905  139.5812  165.6283 C.3     1  UNL1        0.1164
     13 C         139.7401  140.4403  166.8488 C.ar    1  UNL1       -0.0026
     14 C         139.4245  139.8798  168.2038 C.ar    1  UNL1       -0.0026
     15 C         139.5741  140.7390  169.4242 C.ar    1  UNL1        0.0009
     16 C         140.0395  142.1586  169.2896 C.ar    1  UNL1        0.0140
     17 C         140.3552  142.7191  167.9346 C.ar    1  UNL1        0.0009
     18 C         140.2055  141.8599  166.7142 C.ar    1  UNL1       -0.0026
     19 C         140.1892  143.0178  170.5101 C.2     1  UNL1        0.0729
     20 O         140.1321  144.5116  170.3873 O.co2   1  UNL1       -0.5446
     21 O         140.3958  142.3830  171.8534 O.co2   1  UNL1       -0.5446
     22 C         144.8236  142.4398  163.5921 C.3     1  UNL1        0.1010
     23 N         144.8640  143.4741  161.2091 N.3     1  UNL1       -0.3215
     24 C         144.4510  143.5455  162.6493 C.3     1  UNL1        0.0644
     25 H         145.3863  142.6130  161.0474 H       1  UNL1        0.1188
     26 H         145.4527  144.2762  160.9841 H       1  UNL1        0.1188
     27 C         143.6655  144.7225  163.1469 C.3     1  UNL1        0.0424
     28 C         142.1683  144.7173  163.0563 C.ar    1  UNL1       -0.0185
     29 C         141.4981  144.7156  161.7144 C.ar    1  UNL1       -0.0018
     30 C         140.0008  144.7104  161.6239 C.ar    1  UNL1        0.0316
     31 C         139.1737  144.7071  162.8752 C.ar    1  UNL1        0.1674
     32 F         137.6765  144.7019  162.7846 F       1  UNL1       -0.2018
     33 C         139.8440  144.7088  164.2172 C.ar    1  UNL1        0.1671
     34 F         139.0169  144.7054  165.4685 F       1  UNL1       -0.2018
     35 C         141.3412  144.7139  164.3077 C.ar    1  UNL1        0.0277
@<TRIPOS>UNITY_ATOM_ATTR
20 1
charge -1
@<TRIPOS>BOND
     1    23    24    1
     2    24    22    1
     3    22     1    1
     4     1     2    2
     5     1     3   am
     6     3     4    1
     7     4     5    1
     8     5     6    1
     9     6     7    1
    10     7     8    1
    11     8     9    2
    12     8    10   am
    13    10    12    1
    14    12    13    1
    15    13    14   ar
    16    14    15   ar
    17    15    16   ar
    18    16    19    1
    19    19    20   ar
    20    19    21   ar
    21    16    17   ar
    22    17    18   ar
    23    24    27    1
    24    27    28    1
    25    28    29   ar
    26    29    30   ar
    27    30    31   ar
    28    31    32    1
    29    31    33   ar
    30    33    34    1
    31    33    35   ar
    32     7     3    1
    33    18    13   ar
    34    35    28   ar
    35    23    25    1
    36    23    26    1
    37    10    11    1
@<TRIPOS>MOLECULE
*****
 35 37 0 0 0
SMALL
GASTEIGER

@<TRIPOS>ATOM
      1 C         138.1404  141.7827  163.7372 C.2     1  UNL1        0.2273
      2 O         138.6445  141.5162  165.1246 O.2     1  UNL1       -0.2748
      3 N         138.2221  140.7111  162.6908 N.am    1  UNL1       -0.2730
      4 C         137.7611  140.8308  161.2685 C.3     1  UNL1        0.0939
      5 C         138.0332  139.5253  160.5815 C.3     1  UNL1        0.0237
      6 C         138.6625  138.5989  161.5794 C.3     1  UNL1        0.0310
      7 C         138.7792  139.3317  162.8830 C.3     1  UNL1        0.1518
      8 C         139.3524  138.7818  164.1554 C.2     1  UNL1        0.2408
      9 O         138.6382  137.6842  164.8869 O.2     1  UNL1       -0.2733
     10 N         140.6399  139.3294  164.6962 N.am    1  UNL1       -0.2991
     11 H         141.1087  140.0498  164.2161 H       1  UNL1        0.1498
     12 C         141.2131  138.7795  165.9686 C.3     1  UNL1        0.1164
     13 C         141.3079  139.6501  167.1864 C.ar    1  UNL1       -0.0026
     14 C         140.0615  140.1993  167.8146 C.ar    1  UNL1       -0.0026
     15 C         140.1563  141.0699  169.0324 C.ar    1  UNL1        0.0009
     16 C         141.4976  141.3914  169.6219 C.ar    1  UNL1        0.0140
     17 C         142.7441  140.8422  168.9937 C.ar    1  UNL1        0.0009
     18 C         142.6492  139.9716  167.7760 C.ar    1  UNL1       -0.0026
     19 C         141.5924  142.2621  170.8398 C.2     1  UNL1        0.0729
     20 O         140.6055  142.0984  171.9574 O.co2   1  UNL1       -0.5446
     21 O         142.6741  143.2963  170.9399 O.co2   1  UNL1       -0.5446
     22 C         137.5546  143.1209  163.3963 C.3     1  UNL1        0.1010
     23 N         138.4854  145.1748  162.1061 N.3     1  UNL1       -0.3215
     24 C         138.4348  144.3345  163.3475 C.3     1  UNL1        0.0644
     25 H         137.8641  144.7780  161.4012 H       1  UNL1        0.1188
     26 H         139.4398  145.1930  161.7465 H       1  UNL1        0.1188
     27 C         139.2643  144.7077  164.5402 C.3     1  UNL1        0.0424
     28 C         140.7148  144.3291  164.5931 C.ar    1  UNL1       -0.0185
     29 C         141.1574  143.1714  165.4381 C.ar    1  UNL1       -0.0018
     30 C         142.6080  142.7929  165.4909 C.ar    1  UNL1        0.0316
     31 C         143.6158  143.5719  164.6988 C.ar    1  UNL1        0.1674
     32 F         145.0663  143.1934  164.7517 F       1  UNL1       -0.2018
     33 C         143.1730  144.7296  163.8538 C.ar    1  UNL1        0.1671
     34 F         144.1808  145.5087  163.0618 F       1  UNL1       -0.2018
     35 C         141.7226  145.1081  163.8010 C.ar    1  UNL1        0.0277
@<TRIPOS>UNITY_ATOM_ATTR
20 1
charge -1
@<TRIPOS>BOND
     1    23    24    1
     2    24    22    1
     3    22     1    1
     4     1     2    2
     5     1     3   am
     6     3     4    1
     7     4     5    1
     8     5     6    1
     9     6     7    1
    10     7     8    1
    11     8     9    2
    12     8    10   am
    13    10    12    1
    14    12    13    1
    15    13    14   ar
    16    14    15   ar
    17    15    16   ar
    18    16    19    1
    19    19    20   ar
    20    19    21   ar
    21    16    17   ar
    22    17    18   ar
    23    24    27    1
    24    27    28    1
    25    28    29   ar
    26    29    30   ar
    27    30    31   ar
    28    31    32    1
    29    31    33   ar
    30    33    34    1
    31    33    35   ar
    32     7     3    1
    33    18    13   ar
    34    35    28   ar
    35    23    25    1
    36    23    26    1
    37    10    11    1
@<TRIPOS>MOLECULE
*****
 35 37 0 0 0
SMALL
GASTEIGER

@<TRIPOS>ATOM
      1 C         143.9985  139.9378  164.0905 C.2     1  UNL1        0.2273
      2 O         143.3172  139.9241  165.4268 O.2     1  UNL1       -0.2748
      3 N         143.4102  139.1747  162.9409 N.am    1  UNL1       -0.2730
      4 C         143.9757  139.0954  161.5538 C.3     1  UNL1        0.0939
      5 C         143.0682  138.2286  160.7321 C.3     1  UNL1        0.0237
      6 C         141.9419  137.7722  161.6114 C.3     1  UNL1        0.0310
      7 C         142.1533  138.3569  162.9765 C.3     1  UNL1        0.1518
      8 C         141.2639  138.1587  164.1679 C.2     1  UNL1        0.2408
      9 O         141.1459  136.8027  164.7984 O.2     1  UNL1       -0.2733
     10 N         140.4925  139.3164  164.7290 N.am    1  UNL1       -0.2991
     11 H         140.5699  140.2063  164.3152 H       1  UNL1        0.1498
     12 C         139.6031  139.1181  165.9204 C.3     1  UNL1        0.1164
     13 C         139.7265  140.0262  167.1080 C.ar    1  UNL1       -0.0026
     14 C         140.5578  141.2715  167.0167 C.ar    1  UNL1       -0.0026
     15 C         140.6812  142.1795  168.2041 C.ar    1  UNL1        0.0009
     16 C         139.9734  141.8423  169.4829 C.ar    1  UNL1        0.0140
     17 C         139.1422  140.5971  169.5742 C.ar    1  UNL1        0.0009
     18 C         139.0187  139.6891  168.3868 C.ar    1  UNL1       -0.0026
     19 C         140.0969  142.7505  170.6705 C.2     1  UNL1        0.0729
     20 O         140.5151  142.1946  171.9994 O.co2   1  UNL1       -0.5446
     21 O         139.8022  144.2144  170.5290 O.co2   1  UNL1       -0.5446
     22 C         145.2681  140.7146  163.9040 C.3     1  UNL1        0.1010
     23 N         145.7509  142.2652  161.8760 N.3     1  UNL1       -0.3215
     24 C         145.2296  142.0732  163.2693 C.3     1  UNL1        0.0644
     25 H         146.0905  141.3740  161.5142 H       1  UNL1        0.1188
     26 H         146.5154  142.9404  161.8890 H       1  UNL1        0.1188
     27 C         144.6699  143.2398  164.0281 C.3     1  UNL1        0.0424
     28 C         143.2752  143.7162  163.7494 C.ar    1  UNL1       -0.0185
     29 C         142.2002  143.5334  164.7795 C.ar    1  UNL1       -0.0018
     30 C         140.8055  144.0099  164.5007 C.ar    1  UNL1        0.0316
     31 C         140.4857  144.6691  163.1918 C.ar    1  UNL1        0.1674
     32 F         139.0909  145.1456  162.9131 F       1  UNL1       -0.2018
     33 C         141.5607  144.8520  162.1618 C.ar    1  UNL1        0.1671
     34 F         141.2409  145.5113  160.8529 F       1  UNL1       -0.2018
     35 C         142.9554  144.3755  162.4406 C.ar    1  UNL1        0.0277
@<TRIPOS>UNITY_ATOM_ATTR
20 1
charge -1
@<TRIPOS>BOND
     1    23    24    1
     2    24    22    1
     3    22     1    1
     4     1     2    2
     5     1     3   am
     6     3     4    1
     7     4     5    1
     8     5     6    1
     9     6     7    1
    10     7     8    1
    11     8     9    2
    12     8    10   am
    13    10    12    1
    14    12    13    1
    15    13    14   ar
    16    14    15   ar
    17    15    16   ar
    18    16    19    1
    19    19    20   ar
    20    19    21   ar
    21    16    17   ar
    22    17    18   ar
    23    24    27    1
    24    27    28    1
    25    28    29   ar
    26    29    30   ar
    27    30    31   ar
    28    31    32    1
    29    31    33   ar
    30    33    34    1
    31    33    35   ar
    32     7     3    1
    33    18    13   ar
    34    35    28   ar
    35    23    25    1
    36    23    26    1
    37    10    11    1
@<TRIPOS>MOLECULE
*****
 35 37 0 0 0
SMALL
GASTEIGER

@<TRIPOS>ATOM
      1 C         138.0919  142.0713  163.5454 C.2     1  UNL1        0.2273
      2 O         138.4605  141.9307  164.9925 O.2     1  UNL1       -0.2748
      3 N         138.0437  140.8596  162.6625 N.am    1  UNL1       -0.2730
      4 C         137.6935  140.8447  161.2041 C.3     1  UNL1        0.0939
      5 C         137.7706  139.4259  160.7233 C.3     1  UNL1        0.0237
      6 C         138.1685  138.5640  161.8846 C.3     1  UNL1        0.0310
      7 C         138.3372  139.4500  163.0832 C.3     1  UNL1        0.1518
      8 C         138.7305  139.0047  164.4605 C.2     1  UNL1        0.2408
      9 O         140.0265  138.2799  164.6729 O.2     1  UNL1       -0.2733
     10 N         137.8277  139.2841  165.6254 N.am    1  UNL1       -0.2991
     11 H         136.9771  139.7598  165.4860 H       1  UNL1        0.1498
     12 C         138.2209  138.8388  167.0027 C.3     1  UNL1        0.1164
     13 C         138.9424  139.7825  167.9187 C.ar    1  UNL1       -0.0026
     14 C         140.1159  140.5682  167.4132 C.ar    1  UNL1       -0.0026
     15 C         140.8372  141.5119  168.3291 C.ar    1  UNL1        0.0009
     16 C         140.3851  141.6698  169.7506 C.ar    1  UNL1        0.0140
     17 C         139.2117  140.8841  170.2562 C.ar    1  UNL1        0.0009
     18 C         138.4903  139.9405  169.3402 C.ar    1  UNL1       -0.0026
     19 C         141.1066  142.6136  170.6666 C.2     1  UNL1        0.0729
     20 O         141.2463  144.0599  170.2946 O.co2   1  UNL1       -0.5446
     21 O         141.6882  142.1109  171.9546 O.co2   1  UNL1       -0.5446
     22 C         137.7714  143.4237  162.9811 C.3     1  UNL1        0.1010
     23 N         139.1792  145.0538  161.5282 N.3     1  UNL1       -0.3215
     24 C         138.8473  144.4625  162.8662 C.3     1  UNL1        0.0644
     25 H         138.5808  144.6376  160.8147 H       1  UNL1        0.1188
     26 H         140.1563  144.8639  161.3055 H       1  UNL1        0.1188
     27 C         139.5913  144.9101  164.0894 C.3     1  UNL1        0.0424
     28 C         141.0226  144.5067  164.2861 C.ar    1  UNL1       -0.0185
     29 C         142.1252  145.3607  163.7341 C.ar    1  UNL1       -0.0018
     30 C         143.5565  144.9571  163.9309 C.ar    1  UNL1        0.0316
     31 C         143.8851  143.6997  164.6798 C.ar    1  UNL1        0.1674
     32 F         145.3164  143.2962  164.8766 F       1  UNL1       -0.2018
     33 C         142.7824  142.8457  165.2318 C.ar    1  UNL1        0.1671
     34 F         143.1110  141.5882  165.9807 F       1  UNL1       -0.2018
     35 C         141.3512  143.2492  165.0350 C.ar    1  UNL1        0.0277
@<TRIPOS>UNITY_ATOM_ATTR
20 1
charge -1
@<TRIPOS>BOND
     1    23    24    1
     2    24    22    1
     3    22     1    1
     4     1     2    2
     5     1     3   am
     6     3     4    1
     7     4     5    1
     8     5     6    1
     9     6     7    1
    10     7     8    1
    11     8     9    2
    12     8    10   am
    13    10    12    1
    14    12    13    1
    15    13    14   ar
    16    14    15   ar
    17    15    16   ar
    18    16    19    1
    19    19    20   ar
    20    19    21   ar
    21    16    17   ar
    22    17    18   ar
    23    24    27    1
    24    27    28    1
    25    28    29   ar
    26    29    30   ar
    27    30    31   ar
    28    31    32    1
    29    31    33   ar
    30    33    34    1
    31    33    35   ar
    32     7     3    1
    33    18    13   ar
    34    35    28   ar
    35    23    25    1
    36    23    26    1
    37    10    11    1
@<TRIPOS>MOLECULE
*****
 35 37 0 0 0
SMALL
GASTEIGER

@<TRIPOS>ATOM
      1 C         140.1178  139.0694  163.5192 C.2     1  UNL1        0.2273
      2 O         140.3257  139.8300  164.7953 O.2     1  UNL1       -0.2748
      3 N         141.2961  138.6883  162.6728 N.am    1  UNL1       -0.2730
      4 C         141.2440  137.9319  161.3786 C.3     1  UNL1        0.0939
      5 C         142.6490  137.7727  160.8778 C.3     1  UNL1        0.0237
      6 C         143.5694  138.4308  161.8626 C.3     1  UNL1        0.0310
      7 C         142.7332  138.9967  162.9720 C.3     1  UNL1        0.1518
      8 C         143.2444  139.7404  164.1701 C.2     1  UNL1        0.2408
      9 O         143.7946  138.9848  165.3433 O.2     1  UNL1       -0.2733
     10 N         143.2054  141.2397  164.1951 N.am    1  UNL1       -0.2991
     11 H         142.8443  141.7356  163.4251 H       1  UNL1        0.1498
     12 C         143.7166  141.9834  165.3932 C.3     1  UNL1        0.1164
     13 C         142.8012  142.2655  166.5477 C.ar    1  UNL1       -0.0026
     14 C         141.3548  142.5754  166.2995 C.ar    1  UNL1       -0.0026
     15 C         140.4395  142.8575  167.4539 C.ar    1  UNL1        0.0009
     16 C         140.9707  142.8297  168.8564 C.ar    1  UNL1        0.0140
     17 C         142.4172  142.5198  169.1046 C.ar    1  UNL1        0.0009
     18 C         143.3324  142.2377  167.9502 C.ar    1  UNL1       -0.0026
     19 C         140.0553  143.1118  170.0109 C.2     1  UNL1        0.0729
     20 O         139.3250  141.9862  170.6813 O.co2   1  UNL1       -0.5446
     21 O         139.8704  144.5195  170.4947 O.co2   1  UNL1       -0.5446
     22 C         138.7316  138.6901  163.0896 C.3     1  UNL1        0.1010
     23 N         137.3652  139.5693  161.0623 N.3     1  UNL1       -0.3215
     24 C         137.8266  139.7202  162.4816 C.3     1  UNL1        0.0644
     25 H         137.7598  138.7166  160.6654 H       1  UNL1        0.1188
     26 H         137.6751  140.3735  160.5167 H       1  UNL1        0.1188
     27 C         137.3829  140.9013  163.2929 C.3     1  UNL1        0.0424
     28 C         138.1065  142.2095  163.1709 C.ar    1  UNL1       -0.0185
     29 C         138.7819  142.5757  161.8825 C.ar    1  UNL1       -0.0018
     30 C         139.5055  143.8840  161.7606 C.ar    1  UNL1        0.0316
     31 C         139.5538  144.8260  162.9269 C.ar    1  UNL1        0.1674
     32 F         140.2775  146.1342  162.8048 F       1  UNL1       -0.2018
     33 C         138.8784  144.4597  164.2152 C.ar    1  UNL1        0.1671
     34 F         138.9267  145.4018  165.3815 F       1  UNL1       -0.2018
     35 C         138.1548  143.1515  164.3372 C.ar    1  UNL1        0.0277
@<TRIPOS>UNITY_ATOM_ATTR
20 1
charge -1
@<TRIPOS>BOND
     1    23    24    1
     2    24    22    1
     3    22     1    1
     4     1     2    2
     5     1     3   am
     6     3     4    1
     7     4     5    1
     8     5     6    1
     9     6     7    1
    10     7     8    1
    11     8     9    2
    12     8    10   am
    13    10    12    1
    14    12    13    1
    15    13    14   ar
    16    14    15   ar
    17    15    16   ar
    18    16    19    1
    19    19    20   ar
    20    19    21   ar
    21    16    17   ar
    22    17    18   ar
    23    24    27    1
    24    27    28    1
    25    28    29   ar
    26    29    30   ar
    27    30    31   ar
    28    31    32    1
    29    31    33   ar
    30    33    34    1
    31    33    35   ar
    32     7     3    1
    33    18    13   ar
    34    35    28   ar
    35    23    25    1
    36    23    26    1
    37    10    11    1
@<TRIPOS>MOLECULE
*****
 35 37 0 0 0
SMALL
GASTEIGER

@<TRIPOS>ATOM
      1 C         140.6429  142.5822  162.2332 C.2     1  UNL1        0.2273
      2 O         139.8945  142.5878  163.5332 O.2     1  UNL1       -0.2748
      3 N         140.8272  141.2985  161.4795 N.am    1  UNL1       -0.2730
      4 C         141.5487  141.1383  160.1742 C.3     1  UNL1        0.0939
      5 C         141.4898  139.6904  159.7866 C.3     1  UNL1        0.0237
      6 C         140.7320  138.9558  160.8525 C.3     1  UNL1        0.0310
      7 C         140.3225  139.9496  161.8987 C.3     1  UNL1        0.1518
      8 C         139.5448  139.6476  163.1453 C.2     1  UNL1        0.2408
      9 O         138.1073  139.2302  163.0498 O.2     1  UNL1       -0.2733
     10 N         140.2048  139.7629  164.4874 N.am    1  UNL1       -0.2991
     11 H         141.1483  140.0368  164.5501 H       1  UNL1        0.1498
     12 C         139.4271  139.4609  165.7340 C.3     1  UNL1        0.1164
     13 C         139.6111  140.3098  166.9570 C.ar    1  UNL1       -0.0026
     14 C         139.1579  139.8057  168.2950 C.ar    1  UNL1       -0.0026
     15 C         139.3419  140.6545  169.5179 C.ar    1  UNL1        0.0009
     16 C         139.9792  142.0075  169.4027 C.ar    1  UNL1        0.0140
     17 C         140.4325  142.5116  168.0647 C.ar    1  UNL1        0.0009
     18 C         140.2484  141.6628  166.8418 C.ar    1  UNL1       -0.0026
     19 C         140.1633  142.8564  170.6257 C.2     1  UNL1        0.0729
     20 O         140.5354  142.2194  171.9318 O.co2   1  UNL1       -0.5446
     21 O         139.9752  144.3422  170.5426 O.co2   1  UNL1       -0.5446
     22 C         141.2070  143.8603  161.6871 C.3     1  UNL1        0.1010
     23 N         140.7189  146.0848  162.9374 N.3     1  UNL1       -0.3215
     24 C         141.6448  144.9473  162.6234 C.3     1  UNL1        0.0644
     25 H         139.8421  145.9591  162.4316 H       1  UNL1        0.1188
     26 H         141.1519  146.9638  162.6540 H       1  UNL1        0.1188
     27 C         143.0087  144.8967  163.2458 C.3     1  UNL1        0.0424
     28 C         143.6374  143.5735  163.5681 C.ar    1  UNL1       -0.0185
     29 C         144.7433  143.0390  162.7072 C.ar    1  UNL1       -0.0018
     30 C         145.3720  141.7158  163.0296 C.ar    1  UNL1        0.0316
     31 C         144.8947  140.9271  164.2129 C.ar    1  UNL1        0.1674
     32 F         145.5234  139.6039  164.5353 F       1  UNL1       -0.2018
     33 C         143.7888  141.4617  165.0738 C.ar    1  UNL1        0.1671
     34 F         143.3115  140.6730  166.2571 F       1  UNL1       -0.2018
     35 C         143.1602  142.7848  164.7514 C.ar    1  UNL1        0.0277
@<TRIPOS>UNITY_ATOM_ATTR
20 1
charge -1
@<TRIPOS>BOND
     1    23    24    1
     2    24    22    1
     3    22     1    1
     4     1     2    2
     5     1     3   am
     6     3     4    1
     7     4     5    1
     8     5     6    1
     9     6     7    1
    10     7     8    1
    11     8     9    2
    12     8    10   am
    13    10    12    1
    14    12    13    1
    15    13    14   ar
    16    14    15   ar
    17    15    16   ar
    18    16    19    1
    19    19    20   ar
    20    19    21   ar
    21    16    17   ar
    22    17    18   ar
    23    24    27    1
    24    27    28    1
    25    28    29   ar
    26    29    30   ar
    27    30    31   ar
    28    31    32    1
    29    31    33   ar
    30    33    34    1
    31    33    35   ar
    32     7     3    1
    33    18    13   ar
    34    35    28   ar
    35    23    25    1
    36    23    26    1
    37    10    11    1
@<TRIPOS>MOLECULE
*****
 35 37 0 0 0
SMALL
GASTEIGER

@<TRIPOS>ATOM
      1 C         141.5566  144.0399  163.2890 C.2     1  UNL1        0.2273
      2 O         141.4761  143.5947  164.7192 O.2     1  UNL1       -0.2748
      3 N         142.1906  143.1502  162.2612 N.am    1  UNL1       -0.2730
      4 C         142.3424  143.4588  160.8011 C.3     1  UNL1        0.0939
      5 C         143.0298  142.2951  160.1504 C.3     1  UNL1        0.0237
      6 C         143.3028  141.2674  161.2083 C.3     1  UNL1        0.0310
      7 C         142.7842  141.7959  162.5129 C.3     1  UNL1        0.1518
      8 C         142.8480  141.0934  163.8366 C.2     1  UNL1        0.2408
      9 O         144.1539  140.9860  164.5666 O.2     1  UNL1       -0.2733
     10 N         141.6057  140.4982  164.4305 N.am    1  UNL1       -0.2991
     11 H         140.7485  140.5687  163.9514 H       1  UNL1        0.1498
     12 C         141.6694  139.7957  165.7542 C.3     1  UNL1        0.1164
     13 C         141.2978  140.5270  167.0101 C.ar    1  UNL1       -0.0026
     14 C         142.1242  141.6900  167.4733 C.ar    1  UNL1       -0.0026
     15 C         141.7525  142.4212  168.7291 C.ar    1  UNL1        0.0009
     16 C         140.5545  141.9895  169.5217 C.ar    1  UNL1        0.0140
     17 C         139.7281  140.8266  169.0586 C.ar    1  UNL1        0.0009
     18 C         140.0998  140.0953  167.8028 C.ar    1  UNL1       -0.0026
     19 C         140.1828  142.7209  170.7776 C.2     1  UNL1        0.0729
     20 O         140.4059  142.0774  172.1141 O.co2   1  UNL1       -0.5446
     21 O         139.5882  144.0955  170.6969 O.co2   1  UNL1       -0.5446
     22 C         141.0031  145.3748  162.8868 C.3     1  UNL1        0.1010
     23 N         139.1475  146.3666  161.3627 N.3     1  UNL1       -0.3215
     24 C         139.5540  145.5070  162.5228 C.3     1  UNL1        0.0644
     25 H         139.9777  146.7817  160.9397 H       1  UNL1        0.1188
     26 H         138.5260  147.1066  161.6891 H       1  UNL1        0.1188
     27 C         138.5114  144.7797  163.3190 C.3     1  UNL1        0.0424
     28 C         138.2892  143.3124  163.1005 C.ar    1  UNL1       -0.0185
     29 C         138.1644  142.7720  161.7068 C.ar    1  UNL1       -0.0018
     30 C         137.9422  141.3047  161.4885 C.ar    1  UNL1        0.0316
     31 C         137.8449  140.3777  162.6638 C.ar    1  UNL1        0.1674
     32 F         137.6227  138.9105  162.4454 F       1  UNL1       -0.2018
     33 C         137.9697  140.9182  164.0575 C.ar    1  UNL1        0.1671
     34 F         137.8724  139.9913  165.2328 F       1  UNL1       -0.2018
     35 C         138.1919  142.3855  164.2758 C.ar    1  UNL1        0.0277
@<TRIPOS>UNITY_ATOM_ATTR
20 1
charge -1
@<TRIPOS>BOND
     1    23    24    1
     2    24    22    1
     3    22     1    1
     4     1     2    2
     5     1     3   am
     6     3     4    1
     7     4     5    1
     8     5     6    1
     9     6     7    1
    10     7     8    1
    11     8     9    2
    12     8    10   am
    13    10    12    1
    14    12    13    1
    15    13    14   ar
    16    14    15   ar
    17    15    16   ar
    18    16    19    1
    19    19    20   ar
    20    19    21   ar
    21    16    17   ar
    22    17    18   ar
    23    24    27    1
    24    27    28    1
    25    28    29   ar
    26    29    30   ar
    27    30    31   ar
    28    31    32    1
    29    31    33   ar
    30    33    34    1
    31    33    35   ar
    32     7     3    1
    33    18    13   ar
    34    35    28   ar
    35    23    25    1
    36    23    26    1
    37    10    11    1
@<TRIPOS>MOLECULE
*****
 35 37 0 0 0
SMALL
GASTEIGER

@<TRIPOS>ATOM
      1 C         141.4331  138.2455  163.4639 C.2     1  UNL1        0.2273
      2 O         141.6967  138.8080  164.8293 O.2     1  UNL1       -0.2748
      3 N         142.3520  138.5776  162.3258 N.am    1  UNL1       -0.2730
      4 C         142.2167  138.0922  160.9130 C.3     1  UNL1        0.0939
      5 C         143.3486  138.6680  160.1146 C.3     1  UNL1        0.0237
      6 C         144.1834  139.5092  161.0341 C.3     1  UNL1        0.0310
      7 C         143.5675  139.4534  162.4007 C.3     1  UNL1        0.1518
      8 C         144.0775  140.1508  163.6268 C.2     1  UNL1        0.2408
      9 O         145.3836  139.7362  164.2369 O.2     1  UNL1       -0.2733
     10 N         143.2814  141.2629  164.2429 N.am    1  UNL1       -0.2991
     11 H         142.4241  141.5350  163.8425 H       1  UNL1        0.1498
     12 C         143.7914  141.9603  165.4691 C.3     1  UNL1        0.1164
     13 C         142.8602  142.2510  166.6086 C.ar    1  UNL1       -0.0026
     14 C         141.3994  142.4685  166.3466 C.ar    1  UNL1       -0.0026
     15 C         140.4683  142.7592  167.4861 C.ar    1  UNL1        0.0009
     16 C         140.9980  142.8325  168.8875 C.ar    1  UNL1        0.0140
     17 C         142.4588  142.6150  169.1495 C.ar    1  UNL1        0.0009
     18 C         143.3899  142.3243  168.0100 C.ar    1  UNL1       -0.0026
     19 C         140.0668  143.1232  170.0271 C.2     1  UNL1        0.0729
     20 O         139.3212  142.0035  170.6907 O.co2   1  UNL1       -0.5446
     21 O         139.8813  144.5335  170.5029 O.co2   1  UNL1       -0.5446
     22 C         140.2506  137.3510  163.2368 C.3     1  UNL1        0.1010
     23 N         138.0650  137.5895  161.8526 N.3     1  UNL1       -0.3215
     24 C         138.8847  137.9444  163.0576 C.3     1  UNL1        0.0644
     25 H         138.5870  136.9384  161.2660 H       1  UNL1        0.1188
     26 H         137.8582  138.4351  161.3210 H       1  UNL1        0.1188
     27 C         138.3386  138.8927  164.0834 C.3     1  UNL1        0.0424
     28 C         138.1807  140.3470  163.7517 C.ar    1  UNL1       -0.0185
     29 C         138.0685  141.3596  164.8526 C.ar    1  UNL1       -0.0018
     30 C         137.9106  142.8139  164.5207 C.ar    1  UNL1        0.0316
     31 C         137.8650  143.2556  163.0880 C.ar    1  UNL1        0.1674
     32 F         137.7071  144.7099  162.7562 F       1  UNL1       -0.2018
     33 C         137.9772  142.2430  161.9871 C.ar    1  UNL1        0.1671
     34 F         137.9316  142.6847  160.5543 F       1  UNL1       -0.2018
     35 C         138.1351  140.7887  162.3189 C.ar    1  UNL1        0.0277
@<TRIPOS>UNITY_ATOM_ATTR
20 1
charge -1
@<TRIPOS>BOND
     1    23    24    1
     2    24    22    1
     3    22     1    1
     4     1     2    2
     5     1     3   am
     6     3     4    1
     7     4     5    1
     8     5     6    1
     9     6     7    1
    10     7     8    1
    11     8     9    2
    12     8    10   am
    13    10    12    1
    14    12    13    1
    15    13    14   ar
    16    14    15   ar
    17    15    16   ar
    18    16    19    1
    19    19    20   ar
    20    19    21   ar
    21    16    17   ar
    22    17    18   ar
    23    24    27    1
    24    27    28    1
    25    28    29   ar
    26    29    30   ar
    27    30    31   ar
    28    31    32    1
    29    31    33   ar
    30    33    34    1
    31    33    35   ar
    32     7     3    1
    33    18    13   ar
    34    35    28   ar
    35    23    25    1
    36    23    26    1
    37    10    11    1
@<TRIPOS>MOLECULE
*****
 35 37 0 0 0
SMALL
GASTEIGER

@<TRIPOS>ATOM
      1 C         139.4833  143.2948  163.0280 C.2     1  UNL1        0.2273
      2 O         139.8005  143.0273  164.4694 O.2     1  UNL1       -0.2748
      3 N         139.0510  142.1705  162.1341 N.am    1  UNL1       -0.2730
      4 C         138.7025  142.2847  160.6796 C.3     1  UNL1        0.0939
      5 C         138.3274  140.9194  160.1842 C.3     1  UNL1        0.0237
      6 C         138.4441  139.9615  161.3325 C.3     1  UNL1        0.0310
      7 C         138.8913  140.7347  162.5376 C.3     1  UNL1        0.1518
      8 C         139.1358  140.1711  163.9060 C.2     1  UNL1        0.2408
      9 O         137.9770  139.7726  164.7711 O.2     1  UNL1       -0.2733
     10 N         140.5392  140.0058  164.4093 N.am    1  UNL1       -0.2991
     11 H         141.2998  140.2673  163.8415 H       1  UNL1        0.1498
     12 C         140.7837  139.4422  165.7777 C.3     1  UNL1        0.1164
     13 C         140.6214  140.3136  166.9878 C.ar    1  UNL1       -0.0026
     14 C         141.3932  141.5950  167.0983 C.ar    1  UNL1       -0.0026
     15 C         141.2308  142.4664  168.3084 C.ar    1  UNL1        0.0009
     16 C         140.2966  142.0563  169.4080 C.ar    1  UNL1        0.0140
     17 C         139.5248  140.7749  169.2975 C.ar    1  UNL1        0.0009
     18 C         139.6872  139.9036  168.0874 C.ar    1  UNL1       -0.0026
     19 C         140.1343  142.9277  170.6181 C.2     1  UNL1        0.0729
     20 O         139.8503  144.3916  170.4555 O.co2   1  UNL1       -0.5446
     21 O         140.2559  142.3353  171.9907 O.co2   1  UNL1       -0.5446
     22 C         139.5984  144.6866  162.4805 C.3     1  UNL1        0.1010
     23 N         141.2602  145.6252  160.7176 N.3     1  UNL1       -0.3215
     24 C         140.9460  145.2475  162.1349 C.3     1  UNL1        0.0644
     25 H         140.4501  145.4354  160.1276 H       1  UNL1        0.1188
     26 H         142.0560  145.0786  160.3886 H       1  UNL1        0.1188
     27 C         141.9794  145.4306  163.2066 C.3     1  UNL1        0.0424
     28 C         143.0254  144.3785  163.4276 C.ar    1  UNL1       -0.0185
     29 C         143.5792  144.1485  164.8025 C.ar    1  UNL1       -0.0018
     30 C         144.6252  143.0963  165.0233 C.ar    1  UNL1        0.0316
     31 C         145.1174  142.2741  163.8693 C.ar    1  UNL1        0.1674
     32 F         146.1634  141.2219  164.0903 F       1  UNL1       -0.2018
     33 C         144.5635  142.5041  162.4944 C.ar    1  UNL1        0.1671
     34 F         145.0557  141.6819  161.3404 F       1  UNL1       -0.2018
     35 C         143.5176  143.5562  162.2736 C.ar    1  UNL1        0.0277
@<TRIPOS>UNITY_ATOM_ATTR
20 1
charge -1
@<TRIPOS>BOND
     1    23    24    1
     2    24    22    1
     3    22     1    1
     4     1     2    2
     5     1     3   am
     6     3     4    1
     7     4     5    1
     8     5     6    1
     9     6     7    1
    10     7     8    1
    11     8     9    2
    12     8    10   am
    13    10    12    1
    14    12    13    1
    15    13    14   ar
    16    14    15   ar
    17    15    16   ar
    18    16    19    1
    19    19    20   ar
    20    19    21   ar
    21    16    17   ar
    22    17    18   ar
    23    24    27    1
    24    27    28    1
    25    28    29   ar
    26    29    30   ar
    27    30    31   ar
    28    31    32    1
    29    31    33   ar
    30    33    34    1
    31    33    35   ar
    32     7     3    1
    33    18    13   ar
    34    35    28   ar
    35    23    25    1
    36    23    26    1
    37    10    11    1
