@<TRIPOS>MOLECULE
*****
 38 43 0 0 0
SMALL
GASTEIGER

@<TRIPOS>ATOM
      1 C         139.5700  146.9296  156.4539 C.ar    1  UNL1        0.1028
      2 C         139.6975  146.7882  154.9661 C.ar    1  UNL1        0.0131
      3 C         140.4018  145.5989  154.3833 C.ar    1  UNL1       -0.0015
      4 C         141.0889  144.3748  155.0139 C.ar    1  UNL1        0.0035
      5 C         140.5053  145.3327  156.0099 C.ar    1  UNL1        0.0358
      6 C         140.1469  145.8816  157.3590 C.ar    1  UNL1        0.1545
      7 O         140.0681  145.9382  158.8559 O.3     1  UNL1       -0.4528
      8 C         140.2809  145.4937  160.2726 C.ar    1  UNL1        0.1451
      9 C         139.8007  146.2619  161.4681 C.ar    1  UNL1        0.0375
     10 C         140.0602  145.7385  162.8496 C.ar    1  UNL1        0.0029
     11 C         140.7999  144.4469  163.0357 C.ar    1  UNL1       -0.0021
     12 C         141.2801  143.6787  161.8402 C.ar    1  UNL1        0.0029
     13 C         141.0206  144.2021  160.4587 C.ar    1  UNL1        0.0351
     14 C         142.1589  142.1402  162.1362 C.3     1  UNL1        0.1206
     15 N         142.8787  140.9192  161.6451 N.am    1  UNL1       -0.2725
     16 C         143.5758  139.6852  162.1364 C.3     1  UNL1        0.0959
     17 C         144.0560  138.9170  160.9409 C.3     1  UNL1        0.0466
     18 C         143.8207  139.4123  159.2999 C.3     1  UNL1        0.1337
     19 N         143.8995  139.3558  157.8032 N.3     1  UNL1       -0.2863
     20 C         143.6867  139.8002  156.3864 C.3     1  UNL1        0.1151
     21 C         143.2146  140.6782  155.2655 C.ar    1  UNL1        0.0739
     22 C         143.7593  139.7921  154.1847 C.ar    1  UNL1        0.1147
     23 N         143.4365  140.4221  152.8622 N.ar    1  UNL1       -0.2226
     24 C         142.6923  141.6975  153.1257 C.ar    1  UNL1        0.1786
     25 N         142.5551  141.8558  154.6111 N.ar    1  UNL1       -0.3070
     26 C         141.8086  143.1539  154.5227 C.3     1  UNL1        0.1341
     27 C         143.4623  139.9613  160.6491 C.2     1  UNL1        0.2404
     28 O         143.6980  139.5198  161.2695 O.2     1  UNL1       -0.2734
     29 H         143.4719  138.4355  157.7003 H       1  UNL1        0.1240
     30 C         142.2273  141.9423  163.6216 C.ar    1  UNL1        0.0007
     31 C         143.3727  142.5153  164.4026 C.ar    1  UNL1       -0.0023
     32 C         143.4411  142.3176  165.8879 C.ar    1  UNL1        0.0006
     33 C         142.3642  141.5468  166.5922 C.ar    1  UNL1        0.0114
     34 C         141.2188  140.9738  165.8113 C.ar    1  UNL1        0.0574
     35 CL        140.1419  140.2030  166.5157 Cl      1  UNL1       -0.0823
     36 C         141.1504  141.1716  164.3260 C.ar    1  UNL1        0.0090
     37 N         138.1614  149.3080  157.6196 N.1     1  UNL1       -0.1907
     38 C         138.8657  148.1188  157.0367 C.1     1  UNL1        0.1035
@<TRIPOS>BOND
     1    37    38    3
     2    38     1    1
     3     1     2   ar
     4     2     3   ar
     5     3     4   ar
     6     4     5   ar
     7     5     6   ar
     8     6     7    1
     9     7     8    1
    10     8     9   ar
    11     9    10   ar
    12    10    11   ar
    13    11    12   ar
    14    12    13   ar
    15    12    14    1
    16    14    30    1
    17    30    31   ar
    18    31    32   ar
    19    32    33   ar
    20    33    34   ar
    21    34    35    1
    22    34    36   ar
    23    14    15    1
    24    15    16    1
    25    16    17    1
    26    18    17    1
    27    18    19    1
    28    19    20    1
    29    20    21    1
    30    21    22   ar
    31    22    23   ar
    32    23    24   ar
    33    24    25   ar
    34    25    26    1
    35    18    27    1
    36    27    28    2
    37     6     1   ar
    38    13     8   ar
    39    36    30   ar
    40    27    15   am
    41    26     4    1
    42    25    21   ar
    43    19    29    1
@<TRIPOS>MOLECULE
*****
 38 43 0 0 0
SMALL
GASTEIGER

@<TRIPOS>ATOM
      1 C         144.9706  142.4690  157.6686 C.ar    1  UNL1        0.1028
      2 C         144.3507  142.4800  156.3027 C.ar    1  UNL1        0.0131
      3 C         142.9018  142.1302  156.1339 C.ar    1  UNL1       -0.0015
      4 C         141.7988  141.7247  157.1274 C.ar    1  UNL1        0.0035
      5 C         143.1319  141.9869  157.7630 C.ar    1  UNL1        0.0358
      6 C         144.1416  142.1083  158.8656 C.ar    1  UNL1        0.1545
      7 O         144.6741  142.0706  160.2674 O.3     1  UNL1       -0.4528
      8 C         144.6485  141.8793  161.7549 C.ar    1  UNL1        0.1451
      9 C         145.8428  142.0749  162.6410 C.ar    1  UNL1        0.0375
     10 C         145.7221  141.8604  164.1206 C.ar    1  UNL1        0.0029
     11 C         144.4070  141.4502  164.7142 C.ar    1  UNL1       -0.0021
     12 C         143.2127  141.2546  163.8281 C.ar    1  UNL1        0.0029
     13 C         143.3334  141.4692  162.3485 C.ar    1  UNL1        0.0351
     14 C         141.6696  140.7633  164.6057 C.3     1  UNL1        0.1206
     15 N         140.2159  140.4003  164.5340 N.am    1  UNL1       -0.2725
     16 C         139.0584  139.9968  165.3986 C.3     1  UNL1        0.0959
     17 C         137.8640  139.8012  164.5124 C.3     1  UNL1        0.0466
     18 C         137.8731  140.0166  162.7958 C.3     1  UNL1        0.1337
     19 N         137.3405  140.0544  161.3941 N.3     1  UNL1       -0.2863
     20 C         137.3662  140.2456  159.9065 C.3     1  UNL1        0.1151
     21 C         137.9462  140.5612  158.5596 C.ar    1  UNL1        0.0739
     22 C         136.6627  140.3246  157.8204 C.ar    1  UNL1        0.1147
     23 N         136.9155  140.5703  156.3624 N.ar    1  UNL1       -0.2226
     24 C         138.3552  140.9587  156.2006 C.ar    1  UNL1        0.1786
     25 N         138.9923  140.9531  157.5586 N.ar    1  UNL1       -0.3070
     26 C         140.3451  141.3617  157.0556 C.3     1  UNL1        0.1341
     27 C         138.8827  140.1381  163.8984 C.2     1  UNL1        0.2404
     28 O         138.6089  139.9772  164.6296 O.2     1  UNL1       -0.2734
     29 H         136.5739  140.7010  161.5798 H       1  UNL1        0.1240
     30 C         141.9279  140.6465  166.0787 C.ar    1  UNL1        0.0007
     31 C         142.4142  139.3495  166.6543 C.ar    1  UNL1       -0.0023
     32 C         142.6726  139.2326  168.1273 C.ar    1  UNL1        0.0006
     33 C         142.4447  140.4128  169.0246 C.ar    1  UNL1        0.0114
     34 C         141.9583  141.7099  168.4490 C.ar    1  UNL1        0.0574
     35 CL        141.7304  142.8900  169.3464 Cl      1  UNL1       -0.0823
     36 C         141.7000  141.8267  166.9761 C.ar    1  UNL1        0.0090
     37 N         147.8683  143.1685  158.0065 N.1     1  UNL1       -0.1907
     38 C         146.4194  142.8187  157.8375 C.1     1  UNL1        0.1035
@<TRIPOS>BOND
     1    37    38    3
     2    38     1    1
     3     1     2   ar
     4     2     3   ar
     5     3     4   ar
     6     4     5   ar
     7     5     6   ar
     8     6     7    1
     9     7     8    1
    10     8     9   ar
    11     9    10   ar
    12    10    11   ar
    13    11    12   ar
    14    12    13   ar
    15    12    14    1
    16    14    30    1
    17    30    31   ar
    18    31    32   ar
    19    32    33   ar
    20    33    34   ar
    21    34    35    1
    22    34    36   ar
    23    14    15    1
    24    15    16    1
    25    16    17    1
    26    18    17    1
    27    18    19    1
    28    19    20    1
    29    20    21    1
    30    21    22   ar
    31    22    23   ar
    32    23    24   ar
    33    24    25   ar
    34    25    26    1
    35    18    27    1
    36    27    28    2
    37     6     1   ar
    38    13     8   ar
    39    36    30   ar
    40    27    15   am
    41    26     4    1
    42    25    21   ar
    43    19    29    1
@<TRIPOS>MOLECULE
*****
 38 43 0 0 0
SMALL
GASTEIGER

@<TRIPOS>ATOM
      1 C         142.5161  138.0022  156.6184 C.ar    1  UNL1        0.1028
      2 C         142.4347  138.4783  155.1983 C.ar    1  UNL1        0.0131
      3 C         142.0179  139.8887  154.9029 C.ar    1  UNL1       -0.0015
      4 C         141.6164  141.0728  155.8002 C.ar    1  UNL1        0.0035
      5 C         141.9640  139.8223  156.5522 C.ar    1  UNL1        0.0358
      6 C         142.1806  138.9364  157.7431 C.ar    1  UNL1        0.1545
      7 O         142.2334  138.5498  159.1915 O.3     1  UNL1       -0.4528
      8 C         142.1143  138.7214  160.6768 C.ar    1  UNL1        0.1451
      9 C         142.4019  137.6322  161.6672 C.ar    1  UNL1        0.0375
     10 C         142.2552  137.8966  163.1364 C.ar    1  UNL1        0.0029
     11 C         141.8209  139.2502  163.6152 C.ar    1  UNL1       -0.0021
     12 C         141.5332  140.3394  162.6247 C.ar    1  UNL1        0.0029
     13 C         141.6800  140.0749  161.1556 C.ar    1  UNL1        0.0351
     14 C         141.0175  141.9356  163.2677 C.3     1  UNL1        0.1206
     15 N         140.5920  143.3602  163.0690 N.am    1  UNL1       -0.2725
     16 C         140.1841  144.5852  163.8326 C.3     1  UNL1        0.0959
     17 C         139.8964  145.6743  162.8420 C.3     1  UNL1        0.0466
     18 C         140.0278  145.4966  161.1261 C.3     1  UNL1        0.1337
     19 N         139.9750  145.8832  159.6778 N.3     1  UNL1       -0.2863
     20 C         140.0941  145.7116  158.1923 C.3     1  UNL1        0.1151
     21 C         140.3670  145.0079  156.8961 C.ar    1  UNL1        0.0739
     22 C         140.0420  146.1993  156.0448 C.ar    1  UNL1        0.1147
     23 N         140.2262  145.8069  154.6087 N.ar    1  UNL1       -0.2226
     24 C         140.6651  144.3731  154.5726 C.ar    1  UNL1        0.1786
     25 N         140.7522  143.8792  155.9863 N.ar    1  UNL1       -0.3070
     26 C         141.1909  142.4973  155.6015 C.3     1  UNL1        0.1341
     27 C         140.2444  144.6107  162.3169 C.2     1  UNL1        0.2404
     28 O         140.1084  144.9523  163.0242 O.2     1  UNL1       -0.2734
     29 H         140.5979  146.6876  159.7508 H       1  UNL1        0.1240
     30 C         140.9837  141.8260  164.7633 C.ar    1  UNL1        0.0007
     31 C         139.7497  141.3210  165.4506 C.ar    1  UNL1       -0.0023
     32 C         139.7157  141.2114  166.9462 C.ar    1  UNL1        0.0006
     33 C         140.9158  141.6069  167.7545 C.ar    1  UNL1        0.0114
     34 C         142.1499  142.1118  167.0673 C.ar    1  UNL1        0.0574
     35 CL        143.3499  142.5072  167.8757 Cl      1  UNL1       -0.0823
     36 C         142.1838  142.2214  165.5717 C.ar    1  UNL1        0.0090
     37 N         143.3497  135.1816  157.2094 N.1     1  UNL1       -0.1907
     38 C         142.9329  136.5919  156.9139 C.1     1  UNL1        0.1035
@<TRIPOS>BOND
     1    37    38    3
     2    38     1    1
     3     1     2   ar
     4     2     3   ar
     5     3     4   ar
     6     4     5   ar
     7     5     6   ar
     8     6     7    1
     9     7     8    1
    10     8     9   ar
    11     9    10   ar
    12    10    11   ar
    13    11    12   ar
    14    12    13   ar
    15    12    14    1
    16    14    30    1
    17    30    31   ar
    18    31    32   ar
    19    32    33   ar
    20    33    34   ar
    21    34    35    1
    22    34    36   ar
    23    14    15    1
    24    15    16    1
    25    16    17    1
    26    18    17    1
    27    18    19    1
    28    19    20    1
    29    20    21    1
    30    21    22   ar
    31    22    23   ar
    32    23    24   ar
    33    24    25   ar
    34    25    26    1
    35    18    27    1
    36    27    28    2
    37     6     1   ar
    38    13     8   ar
    39    36    30   ar
    40    27    15   am
    41    26     4    1
    42    25    21   ar
    43    19    29    1
@<TRIPOS>MOLECULE
*****
 38 43 0 0 0
SMALL
GASTEIGER

@<TRIPOS>ATOM
      1 C         139.9145  145.5353  156.2788 C.ar    1  UNL1        0.1028
      2 C         140.1163  145.1031  154.8567 C.ar    1  UNL1        0.0131
      3 C         140.6398  143.7296  154.5573 C.ar    1  UNL1       -0.0015
      4 C         141.0575  142.5492  155.4518 C.ar    1  UNL1        0.0035
      5 C         140.5841  143.7552  156.2077 C.ar    1  UNL1        0.0358
      6 C         140.2362  144.5940  157.4016 C.ar    1  UNL1        0.1545
      7 O         140.0668  144.9379  158.8518 O.3     1  UNL1       -0.4528
      8 C         140.1016  144.7345  160.3375 C.ar    1  UNL1        0.1451
      9 C         139.6829  145.7770  161.3314 C.ar    1  UNL1        0.0375
     10 C         139.7521  145.4831  162.8006 C.ar    1  UNL1        0.0029
     11 C         140.2401  144.1467  163.2760 C.ar    1  UNL1       -0.0021
     12 C         140.6588  143.1042  162.2821 C.ar    1  UNL1        0.0029
     13 C         140.5895  143.3981  160.8129 C.ar    1  UNL1        0.0351
     14 C         141.2327  141.5264  162.9211 C.3     1  UNL1        0.1206
     15 N         141.7596  140.1366  162.7185 N.am    1  UNL1       -0.2725
     16 C         142.1949  138.9193  163.4792 C.3     1  UNL1        0.0959
     17 C         142.6136  137.8768  162.4852 C.3     1  UNL1        0.0466
     18 C         142.5809  138.0917  160.7688 C.3     1  UNL1        0.1337
     19 N         142.7503  137.7479  159.3187 N.3     1  UNL1       -0.2863
     20 C         142.7155  137.9513  157.8329 C.3     1  UNL1        0.1151
     21 C         142.4817  138.6711  156.5378 C.ar    1  UNL1        0.0739
     22 C         142.9353  137.5252  155.6828 C.ar    1  UNL1        0.1147
     23 N         142.8185  137.9435  154.2470 N.ar    1  UNL1       -0.2226
     24 C         142.2927  139.3479  154.2148 C.ar    1  UNL1        0.1786
     25 N         142.0845  139.7976  155.6306 N.ar    1  UNL1       -0.3070
     26 C         141.5844  141.1595  155.2492 C.3     1  UNL1        0.1341
     27 C         142.2330  138.9305  161.9627 C.2     1  UNL1        0.2404
     28 O         142.3450  138.5792  162.6694 O.2     1  UNL1       -0.2734
     29 H         142.1763  136.9048  159.3327 H       1  UNL1        0.1240
     30 C         141.1641  141.5979  164.4179 C.ar    1  UNL1        0.0007
     31 C         139.9021  141.2103  165.1301 C.ar    1  UNL1       -0.0023
     32 C         139.8334  141.2818  166.6269 C.ar    1  UNL1        0.0006
     33 C         141.0267  141.7409  167.4113 C.ar    1  UNL1        0.0114
     34 C         142.2887  142.1285  166.6990 C.ar    1  UNL1        0.0574
     35 CL        143.4819  142.5875  167.4835 Cl      1  UNL1       -0.0823
     36 C         142.3573  142.0570  165.2024 C.ar    1  UNL1        0.0090
     37 N         138.8676  148.2822  156.8776 N.1     1  UNL1       -0.1907
     38 C         139.3911  146.9087  156.5782 C.1     1  UNL1        0.1035
@<TRIPOS>BOND
     1    37    38    3
     2    38     1    1
     3     1     2   ar
     4     2     3   ar
     5     3     4   ar
     6     4     5   ar
     7     5     6   ar
     8     6     7    1
     9     7     8    1
    10     8     9   ar
    11     9    10   ar
    12    10    11   ar
    13    11    12   ar
    14    12    13   ar
    15    12    14    1
    16    14    30    1
    17    30    31   ar
    18    31    32   ar
    19    32    33   ar
    20    33    34   ar
    21    34    35    1
    22    34    36   ar
    23    14    15    1
    24    15    16    1
    25    16    17    1
    26    18    17    1
    27    18    19    1
    28    19    20    1
    29    20    21    1
    30    21    22   ar
    31    22    23   ar
    32    23    24   ar
    33    24    25   ar
    34    25    26    1
    35    18    27    1
    36    27    28    2
    37     6     1   ar
    38    13     8   ar
    39    36    30   ar
    40    27    15   am
    41    26     4    1
    42    25    21   ar
    43    19    29    1
@<TRIPOS>MOLECULE
*****
 38 43 0 0 0
SMALL
GASTEIGER

@<TRIPOS>ATOM
      1 C         142.4802  136.6643  156.2929 C.ar    1  UNL1        0.1028
      2 C         141.9655  136.7454  154.8863 C.ar    1  UNL1        0.0131
      3 C         141.3196  138.0072  154.3956 C.ar    1  UNL1       -0.0015
      4 C         141.0345  139.3657  155.0600 C.ar    1  UNL1        0.0035
      5 C         141.7173  138.3750  155.9557 C.ar    1  UNL1        0.0358
      6 C         142.3488  137.8450  157.2088 C.ar    1  UNL1        0.1545
      7 O         142.8330  137.8563  158.6285 O.3     1  UNL1       -0.4528
      8 C         143.0961  138.4072  159.9986 C.ar    1  UNL1        0.1451
      9 C         143.7662  137.6319  161.0940 C.ar    1  UNL1        0.0375
     10 C         143.9875  138.2668  162.4349 C.ar    1  UNL1        0.0029
     11 C         143.5388  139.6769  162.6803 C.ar    1  UNL1       -0.0021
     12 C         142.8687  140.4521  161.5849 C.ar    1  UNL1        0.0029
     13 C         142.6474  139.8173  160.2441 C.ar    1  UNL1        0.0351
     14 C         142.3571  142.1355  161.9481 C.3     1  UNL1        0.1206
     15 N         141.7270  143.4361  161.5461 N.am    1  UNL1       -0.2725
     16 C         141.3951  144.7985  162.0787 C.3     1  UNL1        0.0959
     17 C         140.7250  145.5738  160.9832 C.3     1  UNL1        0.0466
     18 C         140.4126  144.9567  159.3973 C.3     1  UNL1        0.1337
     19 N         139.9285  144.9454  157.9777 N.3     1  UNL1       -0.2863
     20 C         139.6653  144.3945  156.6075 C.3     1  UNL1        0.1151
     21 C         139.6634  143.3878  155.4955 C.ar    1  UNL1        0.0739
     22 C         138.9826  144.2965  154.5154 C.ar    1  UNL1        0.1147
     23 N         138.8213  143.5489  153.2250 N.ar    1  UNL1       -0.2226
     24 C         139.4024  142.1782  153.4077 C.ar    1  UNL1        0.1786
     25 N         139.9229  142.0786  154.8110 N.ar    1  UNL1       -0.3070
     26 C         140.4044  140.6662  154.6581 C.3     1  UNL1        0.1341
     27 C         141.0442  144.4268  160.6504 C.2     1  UNL1        0.2404
     28 O         141.0627  144.9359  161.2635 O.2     1  UNL1       -0.2734
     29 H         140.4475  145.7688  157.6728 H       1  UNL1        0.1240
     30 C         142.7381  142.4222  163.3703 C.ar    1  UNL1        0.0007
     31 C         144.0924  142.9852  163.6850 C.ar    1  UNL1       -0.0023
     32 C         144.4734  143.2719  165.1072 C.ar    1  UNL1        0.0006
     33 C         143.5001  142.9956  166.2147 C.ar    1  UNL1        0.0114
     34 C         142.1458  142.4326  165.8999 C.ar    1  UNL1        0.0574
     35 CL        141.1726  142.1563  167.0075 Cl      1  UNL1       -0.0823
     36 C         141.7649  142.1459  164.4778 C.ar    1  UNL1        0.0090
     37 N         143.7721  134.1409  157.2745 N.1     1  UNL1       -0.1907
     38 C         143.1261  135.4026  156.7837 C.1     1  UNL1        0.1035
@<TRIPOS>BOND
     1    37    38    3
     2    38     1    1
     3     1     2   ar
     4     2     3   ar
     5     3     4   ar
     6     4     5   ar
     7     5     6   ar
     8     6     7    1
     9     7     8    1
    10     8     9   ar
    11     9    10   ar
    12    10    11   ar
    13    11    12   ar
    14    12    13   ar
    15    12    14    1
    16    14    30    1
    17    30    31   ar
    18    31    32   ar
    19    32    33   ar
    20    33    34   ar
    21    34    35    1
    22    34    36   ar
    23    14    15    1
    24    15    16    1
    25    16    17    1
    26    18    17    1
    27    18    19    1
    28    19    20    1
    29    20    21    1
    30    21    22   ar
    31    22    23   ar
    32    23    24   ar
    33    24    25   ar
    34    25    26    1
    35    18    27    1
    36    27    28    2
    37     6     1   ar
    38    13     8   ar
    39    36    30   ar
    40    27    15   am
    41    26     4    1
    42    25    21   ar
    43    19    29    1
@<TRIPOS>MOLECULE
*****
 38 43 0 0 0
SMALL
GASTEIGER

@<TRIPOS>ATOM
      1 C         135.4403  140.6225  156.4523 C.ar    1  UNL1        0.1028
      2 C         135.2555  141.1785  155.0715 C.ar    1  UNL1        0.0131
      3 C         136.3812  141.9077  154.3997 C.ar    1  UNL1       -0.0015
      4 C         137.8162  142.2511  154.8367 C.ar    1  UNL1        0.0035
      5 C         137.0278  141.4896  155.8607 C.ar    1  UNL1        0.0358
      6 C         136.7508  140.7957  157.1614 C.ar    1  UNL1        0.1545
      7 O         137.0273  140.2749  158.5406 O.3     1  UNL1       -0.4528
      8 C         137.8151  140.0067  159.7886 C.ar    1  UNL1        0.1451
      9 C         137.2719  139.2647  160.9736 C.ar    1  UNL1        0.0375
     10 C         138.1352  139.0437  162.1802 C.ar    1  UNL1        0.0029
     11 C         139.5417  139.5646  162.2017 C.ar    1  UNL1       -0.0021
     12 C         140.0849  140.3066  161.0166 C.ar    1  UNL1        0.0029
     13 C         139.2215  140.5276  159.8101 C.ar    1  UNL1        0.0351
     14 C         141.7770  140.9025  161.1104 C.3     1  UNL1        0.1206
     15 N         142.9567  141.6157  160.5190 N.am    1  UNL1       -0.2725
     16 C         144.3709  142.0096  160.8272 C.3     1  UNL1        0.0959
     17 C         144.9140  142.7516  159.6420 C.3     1  UNL1        0.0466
     18 C         144.0221  143.0711  158.1943 C.3     1  UNL1        0.1337
     19 N         143.7457  143.5918  156.8151 N.3     1  UNL1       -0.2863
     20 C         142.9578  143.8601  155.5671 C.3     1  UNL1        0.1151
     21 C         141.7785  143.8350  154.6405 C.ar    1  UNL1        0.0739
     22 C         142.4719  144.5922  153.5471 C.ar    1  UNL1        0.1147
     23 N         141.5093  144.7456  152.4070 N.ar    1  UNL1       -0.2226
     24 C         140.2209  144.0833  152.7959 C.ar    1  UNL1        0.1786
     25 N         140.3872  143.5204  154.1764 N.ar    1  UNL1       -0.3070
     26 C         138.9959  142.9643  154.2453 C.3     1  UNL1        0.1341
     27 C         143.7451  142.3772  159.4950 C.2     1  UNL1        0.2404
     28 O         144.3510  142.3710  160.0130 O.2     1  UNL1       -0.2734
     29 H         144.5309  143.1285  156.3579 H       1  UNL1        0.1240
     30 C         142.3196  140.5003  162.4498 C.ar    1  UNL1        0.0007
     31 C         142.9977  139.1727  162.6163 C.ar    1  UNL1       -0.0023
     32 C         143.5404  138.7704  163.9556 C.ar    1  UNL1        0.0006
     33 C         143.4049  139.6957  165.1284 C.ar    1  UNL1        0.0114
     34 C         142.7268  141.0233  164.9619 C.ar    1  UNL1        0.0574
     35 CL        142.5913  141.9486  166.1347 Cl      1  UNL1       -0.0823
     36 C         142.1842  141.4256  163.6226 C.ar    1  UNL1        0.0090
     37 N         133.1891  139.1642  157.7959 N.1     1  UNL1       -0.1907
     38 C         134.3147  139.8934  157.1241 C.1     1  UNL1        0.1035
@<TRIPOS>BOND
     1    37    38    3
     2    38     1    1
     3     1     2   ar
     4     2     3   ar
     5     3     4   ar
     6     4     5   ar
     7     5     6   ar
     8     6     7    1
     9     7     8    1
    10     8     9   ar
    11     9    10   ar
    12    10    11   ar
    13    11    12   ar
    14    12    13   ar
    15    12    14    1
    16    14    30    1
    17    30    31   ar
    18    31    32   ar
    19    32    33   ar
    20    33    34   ar
    21    34    35    1
    22    34    36   ar
    23    14    15    1
    24    15    16    1
    25    16    17    1
    26    18    17    1
    27    18    19    1
    28    19    20    1
    29    20    21    1
    30    21    22   ar
    31    22    23   ar
    32    23    24   ar
    33    24    25   ar
    34    25    26    1
    35    18    27    1
    36    27    28    2
    37     6     1   ar
    38    13     8   ar
    39    36    30   ar
    40    27    15   am
    41    26     4    1
    42    25    21   ar
    43    19    29    1
@<TRIPOS>MOLECULE
*****
 38 43 0 0 0
SMALL
GASTEIGER

@<TRIPOS>ATOM
      1 C         138.1205  140.9523  156.7412 C.ar    1  UNL1        0.1028
      2 C         138.7335  141.1530  155.3869 C.ar    1  UNL1        0.0131
      3 C         140.1933  141.4757  155.2647 C.ar    1  UNL1       -0.0015
      4 C         141.3148  141.6669  156.3011 C.ar    1  UNL1        0.0035
      5 C         139.9759  141.3467  156.8968 C.ar    1  UNL1        0.0358
      6 C         138.9674  141.0741  157.9733 C.ar    1  UNL1        0.1545
      7 O         138.4429  140.8906  159.3665 O.3     1  UNL1       -0.4528
      8 C         138.4822  140.8240  160.8645 C.ar    1  UNL1        0.1451
      9 C         137.2855  140.5218  161.7169 C.ar    1  UNL1        0.0375
     10 C         137.4206  140.4763  163.2101 C.ar    1  UNL1        0.0029
     11 C         138.7523  140.7329  163.8509 C.ar    1  UNL1       -0.0021
     12 C         139.9490  141.0351  162.9985 C.ar    1  UNL1        0.0029
     13 C         139.8139  141.0806  161.5053 C.ar    1  UNL1        0.0351
     14 C         141.5123  141.3323  163.8321 C.3     1  UNL1        0.1206
     15 N         142.9779  141.6512  163.8079 N.am    1  UNL1       -0.2725
     16 C         144.1531  141.8605  164.7162 C.3     1  UNL1        0.0959
     17 C         145.3498  142.1627  163.8637 C.3     1  UNL1        0.0466
     18 C         145.3252  142.2440  162.1357 C.3     1  UNL1        0.1337
     19 N         145.8497  142.4275  160.7425 N.3     1  UNL1       -0.2863
     20 C         145.8105  142.4941  159.2444 C.3     1  UNL1        0.1151
     21 C         145.2133  142.4336  157.8697 C.ar    1  UNL1        0.0739
     22 C         146.5012  142.7480  157.1681 C.ar    1  UNL1        0.1147
     23 N         146.2332  142.7638  155.6923 N.ar    1  UNL1       -0.2226
     24 C         144.7796  142.4592  155.4819 C.ar    1  UNL1        0.1786
     25 N         144.1492  142.2551  156.8277 N.ar    1  UNL1       -0.3070
     26 C         142.7802  141.9859  156.2768 C.3     1  UNL1        0.1341
     27 C         144.3168  141.9714  163.2121 C.2     1  UNL1        0.2404
     28 O         144.5996  141.9954  163.9571 O.2     1  UNL1       -0.2734
     29 H         146.5933  141.7323  160.8072 H       1  UNL1        0.1240
     30 C         141.2650  141.2048  165.3061 C.ar    1  UNL1        0.0007
     31 C         141.4167  139.8730  165.9795 C.ar    1  UNL1       -0.0023
     32 C         141.1694  139.7454  167.4535 C.ar    1  UNL1        0.0006
     33 C         140.7704  140.9496  168.2540 C.ar    1  UNL1        0.0114
     34 C         140.6188  142.2813  167.5805 C.ar    1  UNL1        0.0574
     35 CL        140.2198  143.4855  168.3811 Cl      1  UNL1       -0.0823
     36 C         140.8661  142.4089  166.1067 C.ar    1  UNL1        0.0090
     37 N         135.2009  140.3070  156.9856 N.1     1  UNL1       -0.1907
     38 C         136.6608  140.6296  156.8634 C.1     1  UNL1        0.1035
@<TRIPOS>BOND
     1    37    38    3
     2    38     1    1
     3     1     2   ar
     4     2     3   ar
     5     3     4   ar
     6     4     5   ar
     7     5     6   ar
     8     6     7    1
     9     7     8    1
    10     8     9   ar
    11     9    10   ar
    12    10    11   ar
    13    11    12   ar
    14    12    13   ar
    15    12    14    1
    16    14    30    1
    17    30    31   ar
    18    31    32   ar
    19    32    33   ar
    20    33    34   ar
    21    34    35    1
    22    34    36   ar
    23    14    15    1
    24    15    16    1
    25    16    17    1
    26    18    17    1
    27    18    19    1
    28    19    20    1
    29    20    21    1
    30    21    22   ar
    31    22    23   ar
    32    23    24   ar
    33    24    25   ar
    34    25    26    1
    35    18    27    1
    36    27    28    2
    37     6     1   ar
    38    13     8   ar
    39    36    30   ar
    40    27    15   am
    41    26     4    1
    42    25    21   ar
    43    19    29    1
@<TRIPOS>MOLECULE
*****
 38 43 0 0 0
SMALL
GASTEIGER

@<TRIPOS>ATOM
      1 C         138.6117  143.1208  154.8081 C.ar    1  UNL1        0.1028
      2 C         138.3549  142.2369  153.6237 C.ar    1  UNL1        0.0131
      3 C         138.8762  140.8304  153.6104 C.ar    1  UNL1       -0.0015
      4 C         139.6894  140.0045  154.6227 C.ar    1  UNL1        0.0035
      5 C         139.3878  141.4033  155.0725 C.ar    1  UNL1        0.0358
      6 C         139.3899  142.5983  155.9792 C.ar    1  UNL1        0.1545
      7 O         139.6952  143.4075  157.2047 O.3     1  UNL1       -0.4528
      8 C         140.2574  143.7077  158.5626 C.ar    1  UNL1        0.1451
      9 C         140.1046  145.0300  159.2541 C.ar    1  UNL1        0.0375
     10 C         140.7022  145.2386  160.6140 C.ar    1  UNL1        0.0029
     11 C         141.4524  144.1249  161.2824 C.ar    1  UNL1       -0.0021
     12 C         141.6052  142.8026  160.5910 C.ar    1  UNL1        0.0029
     13 C         141.0076  142.5940  159.2311 C.ar    1  UNL1        0.0351
     14 C         142.5156  141.5136  161.4493 C.3     1  UNL1        0.1206
     15 N         143.0750  140.1238  161.5250 N.am    1  UNL1       -0.2725
     16 C         143.8622  139.2183  162.4251 C.3     1  UNL1        0.0959
     17 C         144.0149  137.8959  161.7336 C.3     1  UNL1        0.0466
     18 C         143.3745  137.5300  160.1686 C.3     1  UNL1        0.1337
     19 N         143.0692  136.7208  158.9431 N.3     1  UNL1       -0.2863
     20 C         142.5070  136.4206  157.5852 C.3     1  UNL1        0.1151
     21 C         141.7736  136.6751  156.3017 C.ar    1  UNL1        0.0739
     22 C         142.0167  135.3006  155.7527 C.ar    1  UNL1        0.1147
     23 N         141.3740  135.2215  154.3997 N.ar    1  UNL1       -0.2226
     24 C         140.7336  136.5471  154.1125 C.ar    1  UNL1        0.1786
     25 N         140.9806  137.4456  155.2880 N.ar    1  UNL1       -0.3070
     26 C         140.2487  138.6147  154.6984 C.3     1  UNL1        0.1341
     27 C         143.3765  138.7249  161.0753 C.2     1  UNL1        0.2404
     28 O         143.7581  138.6255  161.7681 O.2     1  UNL1       -0.2734
     29 H         142.6206  135.9433  159.4276 H       1  UNL1        0.1240
     30 C         142.9579  142.0791  162.7663 C.ar    1  UNL1        0.0007
     31 C         144.3019  142.7341  162.8879 C.ar    1  UNL1       -0.0023
     32 C         144.7442  143.2997  164.2049 C.ar    1  UNL1        0.0006
     33 C         143.8426  143.2101  165.4004 C.ar    1  UNL1        0.0114
     34 C         142.4986  142.5551  165.2788 C.ar    1  UNL1        0.0574
     35 CL        141.5970  142.4656  166.4743 Cl      1  UNL1       -0.0823
     36 C         142.0563  141.9896  163.9619 C.ar    1  UNL1        0.0090
     37 N         137.5690  145.9337  154.8347 N.1     1  UNL1       -0.1907
     38 C         138.0904  144.5272  154.8214 C.1     1  UNL1        0.1035
@<TRIPOS>BOND
     1    37    38    3
     2    38     1    1
     3     1     2   ar
     4     2     3   ar
     5     3     4   ar
     6     4     5   ar
     7     5     6   ar
     8     6     7    1
     9     7     8    1
    10     8     9   ar
    11     9    10   ar
    12    10    11   ar
    13    11    12   ar
    14    12    13   ar
    15    12    14    1
    16    14    30    1
    17    30    31   ar
    18    31    32   ar
    19    32    33   ar
    20    33    34   ar
    21    34    35    1
    22    34    36   ar
    23    14    15    1
    24    15    16    1
    25    16    17    1
    26    18    17    1
    27    18    19    1
    28    19    20    1
    29    20    21    1
    30    21    22   ar
    31    22    23   ar
    32    23    24   ar
    33    24    25   ar
    34    25    26    1
    35    18    27    1
    36    27    28    2
    37     6     1   ar
    38    13     8   ar
    39    36    30   ar
    40    27    15   am
    41    26     4    1
    42    25    21   ar
    43    19    29    1
@<TRIPOS>MOLECULE
*****
 38 43 0 0 0
SMALL
GASTEIGER

@<TRIPOS>ATOM
      1 C         139.2023  139.2237  154.8305 C.ar    1  UNL1        0.1028
      2 C         140.0255  139.1845  153.5772 C.ar    1  UNL1        0.0131
      3 C         141.4352  139.6971  153.5894 C.ar    1  UNL1       -0.0015
      4 C         142.3175  140.3116  154.6905 C.ar    1  UNL1        0.0035
      5 C         140.9388  139.9358  155.1464 C.ar    1  UNL1        0.0358
      6 C         139.7888  139.7754  156.0961 C.ar    1  UNL1        0.1545
      7 O         139.0428  139.8547  157.3950 O.3     1  UNL1       -0.4528
      8 C         138.8142  140.1616  158.8453 C.ar    1  UNL1        0.1451
      9 C         137.5251  139.8883  159.5618 C.ar    1  UNL1        0.0375
     10 C         137.3884  140.2295  161.0161 C.ar    1  UNL1        0.0029
     11 C         138.5409  140.8440  161.7538 C.ar    1  UNL1       -0.0021
     12 C         139.8300  141.1173  161.0373 C.ar    1  UNL1        0.0029
     13 C         139.9666  140.7761  159.5831 C.ar    1  UNL1        0.0351
     14 C         141.1684  141.8545  161.9819 C.3     1  UNL1        0.1206
     15 N         142.5661  142.3884  162.0893 N.am    1  UNL1       -0.2725
     16 C         143.5222  142.9976  163.0715 C.3     1  UNL1        0.0959
     17 C         144.8114  143.2709  162.3549 C.3     1  UNL1        0.0466
     18 C         145.0948  142.9245  160.6837 C.3     1  UNL1        0.1337
     19 N         145.8408  142.8452  159.3849 N.3     1  UNL1       -0.2863
     20 C         146.0695  142.5383  157.9344 C.3     1  UNL1        0.1151
     21 C         145.7457  142.0505  156.5534 C.ar    1  UNL1        0.0739
     22 C         147.0948  142.3868  155.9907 C.ar    1  UNL1        0.1147
     23 N         147.1020  142.0001  154.5413 N.ar    1  UNL1       -0.2226
     24 C         145.7573  141.4249  154.2085 C.ar    1  UNL1        0.1786
     25 N         144.9190  141.4560  155.4520 N.ar    1  UNL1       -0.3070
     26 C         143.7152  140.8454  154.7978 C.3     1  UNL1        0.1341
     27 C         143.9449  142.7641  161.6334 C.2     1  UNL1        0.2404
     28 O         144.0815  143.0135  162.3781 O.2     1  UNL1       -0.2734
     29 H         146.6359  142.3149  159.7412 H       1  UNL1        0.1240
     30 C         140.6715  142.0514  163.3835 C.ar    1  UNL1        0.0007
     31 C         140.8623  140.9703  164.4057 C.ar    1  UNL1       -0.0023
     32 C         140.3656  141.1671  165.8073 C.ar    1  UNL1        0.0006
     33 C         139.6780  142.4451  166.1867 C.ar    1  UNL1        0.0114
     34 C         139.4872  143.5263  165.1645 C.ar    1  UNL1        0.0574
     35 CL        138.7996  144.8043  165.5441 Cl      1  UNL1       -0.0823
     36 C         139.9840  143.3294  163.7630 C.ar    1  UNL1        0.0090
     37 N         136.3830  138.1984  154.8061 N.1     1  UNL1       -0.1907
     38 C         137.7927  138.7111  154.8183 C.1     1  UNL1        0.1035
@<TRIPOS>BOND
     1    37    38    3
     2    38     1    1
     3     1     2   ar
     4     2     3   ar
     5     3     4   ar
     6     4     5   ar
     7     5     6   ar
     8     6     7    1
     9     7     8    1
    10     8     9   ar
    11     9    10   ar
    12    10    11   ar
    13    11    12   ar
    14    12    13   ar
    15    12    14    1
    16    14    30    1
    17    30    31   ar
    18    31    32   ar
    19    32    33   ar
    20    33    34   ar
    21    34    35    1
    22    34    36   ar
    23    14    15    1
    24    15    16    1
    25    16    17    1
    26    18    17    1
    27    18    19    1
    28    19    20    1
    29    20    21    1
    30    21    22   ar
    31    22    23   ar
    32    23    24   ar
    33    24    25   ar
    34    25    26    1
    35    18    27    1
    36    27    28    2
    37     6     1   ar
    38    13     8   ar
    39    36    30   ar
    40    27    15   am
    41    26     4    1
    42    25    21   ar
    43    19    29    1
