@<TRIPOS>MOLECULE
*****
 28 31 0 0 0
SMALL
GASTEIGER

@<TRIPOS>ATOM
      1 N         141.7991  140.3469  167.5214 N.3     1  UNL1       -0.2586
      2 C         140.6744  139.6589  166.8060 C.3     1  UNL1        0.0982
      3 C         139.2974  139.6564  167.4007 C.3     1  UNL1        0.0224
      4 C         138.1727  138.9684  166.6853 C.3     1  UNL1        0.0065
      5 C         138.4251  138.2828  165.3753 C.3     1  UNL1        0.0277
      6 C         139.8022  138.2852  164.7805 C.ar    1  UNL1       -0.0073
      7 C         140.0546  137.5997  163.4705 C.ar    1  UNL1       -0.0015
      8 C         141.4316  137.6021  162.8759 C.ar    1  UNL1        0.0203
      9 C         142.5563  138.2901  163.5912 C.ar    1  UNL1        0.0985
     10 N         142.3039  138.9757  164.9013 N.ar    1  UNL1       -0.2471
     11 C         140.9269  138.9733  165.4959 C.ar    1  UNL1        0.0695
     12 C         142.6960  139.5657  168.4353 C.3     1  UNL1        0.0730
     13 C         142.2688  139.2849  169.8455 C.3     1  UNL1        0.0188
     14 C         141.1853  140.1066  170.4786 C.3     1  UNL1        0.0183
     15 N         140.4623  142.1794  171.8682 N.3     1  UNL1       -0.3211
     16 C         141.5188  141.4200  171.1219 C.3     1  UNL1        0.0652
     17 H         140.8609  143.0427  172.2373 H       1  UNL1        0.1189
     18 H         140.1140  141.6091  172.6388 H       1  UNL1        0.1189
     19 C         142.0268  141.8162  167.3228 C.3     1  UNL1        0.1979
     20 C         141.3914  142.5236  166.1627 C.2     1  UNL1        0.3675
     21 N         141.9657  142.6451  164.7823 N.2     1  UNL1       -0.0337
     22 C         140.9994  143.4302  163.9457 C.2     1  UNL1        0.2318
     23 C         141.0349  143.8609  162.5093 C.2     1  UNL1        0.0498
     24 C         139.8990  144.6554  161.9363 C.2     1  UNL1       -0.0002
     25 C         138.7275  145.0191  162.7997 C.2     1  UNL1       -0.0172
     26 C         138.6920  144.5884  164.2360 C.3     1  UNL1        0.1037
     27 C         139.8280  143.7940  164.8091 C.2     1  UNL1        0.2175
     28 N         140.0702  143.2336  166.1793 N.2     1  UNL1       -0.0375
@<TRIPOS>BOND
     1    15    16    1
     2    16    14    1
     3    14    13    1
     4    13    12    1
     5    12     1    1
     6     1    19    1
     7    19    20    1
     8    20    21    2
     9    21    22    1
    10    22    23    2
    11    23    24    1
    12    24    25    2
    13    25    26    1
    14    26    27    1
    15    27    28    2
    16     2     1    1
    17     2     3    1
    18     3     4    1
    19     4     5    1
    20     5     6    1
    21     6     7   ar
    22     7     8   ar
    23     8     9   ar
    24     9    10   ar
    25    10    11   ar
    26    28    20    1
    27    11     2    1
    28    27    22    1
    29    11     6   ar
    30    15    17    1
    31    15    18    1
@<TRIPOS>MOLECULE
*****
 28 31 0 0 0
SMALL
GASTEIGER

@<TRIPOS>ATOM
      1 N         138.7345  140.2385  164.1074 N.3     1  UNL1       -0.2586
      2 C         138.9081  141.7211  164.2549 C.3     1  UNL1        0.0982
      3 C         137.7192  142.5911  164.5369 C.3     1  UNL1        0.0224
      4 C         137.8929  144.0737  164.6844 C.3     1  UNL1        0.0065
      5 C         139.2555  144.6862  164.5500 C.3     1  UNL1        0.0277
      6 C         140.4445  143.8162  164.2680 C.ar    1  UNL1       -0.0073
      7 C         141.8070  144.4288  164.1335 C.ar    1  UNL1       -0.0015
      8 C         142.9959  143.5588  163.8516 C.ar    1  UNL1        0.0203
      9 C         142.8223  142.0762  163.7040 C.ar    1  UNL1        0.0985
     10 N         141.4597  141.4636  163.8385 N.ar    1  UNL1       -0.2471
     11 C         140.2708  142.3336  164.1204 C.ar    1  UNL1        0.0695
     12 C         138.7099  139.6184  162.7418 C.3     1  UNL1        0.0730
     13 C         138.9906  138.1541  162.5778 C.3     1  UNL1        0.0188
     14 C         140.4003  137.6771  162.3892 C.3     1  UNL1        0.0183
     15 N         142.1675  138.3984  164.1517 N.3     1  UNL1       -0.3211
     16 C         141.2498  137.3570  163.5833 C.3     1  UNL1        0.0652
     17 H         142.6647  138.0120  164.9541 H       1  UNL1        0.1189
     18 H         141.6217  139.2077  164.4475 H       1  UNL1        0.1189
     19 C         138.5853  139.3759  165.3255 C.3     1  UNL1        0.1979
     20 C         139.4305  139.6365  166.5371 C.2     1  UNL1        0.3675
     21 N         140.9293  139.6856  166.5726 N.2     1  UNL1       -0.0337
     22 C         141.3504  139.9732  167.9833 C.2     1  UNL1        0.2318
     23 C         142.7015  140.1345  168.6143 C.2     1  UNL1        0.0498
     24 C         142.8142  140.4246  170.0816 C.2     1  UNL1       -0.0002
     25 C         141.5757  140.5532  170.9179 C.2     1  UNL1       -0.0172
     26 C         140.2245  140.3919  170.2869 C.3     1  UNL1        0.1037
     27 C         140.1118  140.1019  168.8196 C.2     1  UNL1        0.2175
     28 N         138.9252  139.8938  167.9258 N.2     1  UNL1       -0.0375
@<TRIPOS>BOND
     1    15    16    1
     2    16    14    1
     3    14    13    1
     4    13    12    1
     5    12     1    1
     6     1    19    1
     7    19    20    1
     8    20    21    2
     9    21    22    1
    10    22    23    2
    11    23    24    1
    12    24    25    2
    13    25    26    1
    14    26    27    1
    15    27    28    2
    16     2     1    1
    17     2     3    1
    18     3     4    1
    19     4     5    1
    20     5     6    1
    21     6     7   ar
    22     7     8   ar
    23     8     9   ar
    24     9    10   ar
    25    10    11   ar
    26    28    20    1
    27    11     2    1
    28    27    22    1
    29    11     6   ar
    30    15    17    1
    31    15    18    1
@<TRIPOS>MOLECULE
*****
 28 31 0 0 0
SMALL
GASTEIGER

@<TRIPOS>ATOM
      1 N         141.7311  139.5800  164.1159 N.3     1  UNL1       -0.2586
      2 C         142.9260  140.4778  163.9891 C.3     1  UNL1        0.0982
      3 C         144.3077  139.8941  164.0041 C.3     1  UNL1        0.0224
      4 C         145.5026  140.7919  163.8772 C.3     1  UNL1        0.0065
      5 C         145.3159  142.2734  163.7353 C.3     1  UNL1        0.0277
      6 C         143.9342  142.8572  163.7203 C.ar    1  UNL1       -0.0073
      7 C         143.7475  144.3388  163.5785 C.ar    1  UNL1       -0.0015
      8 C         142.3658  144.9225  163.5635 C.ar    1  UNL1        0.0203
      9 C         141.1709  144.0247  163.6904 C.ar    1  UNL1        0.0985
     10 N         141.3576  142.5432  163.8322 N.ar    1  UNL1       -0.2471
     11 C         142.7392  141.9594  163.8472 C.ar    1  UNL1        0.0695
     12 C         141.0979  138.9961  162.8879 C.3     1  UNL1        0.0730
     13 C         139.9125  139.6698  162.2627 C.3     1  UNL1        0.0188
     14 C         138.5517  139.5125  162.8740 C.3     1  UNL1        0.0183
     15 N         136.7415  141.3538  163.1613 N.3     1  UNL1       -0.3211
     16 C         137.9538  140.6331  163.6719 C.3     1  UNL1        0.0652
     17 H         136.4728  142.0800  163.8253 H       1  UNL1        0.1189
     18 H         135.9732  140.6918  163.0522 H       1  UNL1        0.1189
     19 C         141.1693  139.2662  165.4709 C.3     1  UNL1        0.1979
     20 C         141.3729  140.2238  166.6074 C.2     1  UNL1        0.3675
     21 N         142.5888  140.3090  167.4815 N.2     1  UNL1       -0.0337
     22 C         142.3637  141.4022  168.4837 C.2     1  UNL1        0.2318
     23 C         143.2175  141.9362  169.5952 C.2     1  UNL1        0.0498
     24 C         142.7162  143.0607  170.4521 C.2     1  UNL1       -0.0002
     25 C         141.3610  143.6511  170.1973 C.2     1  UNL1       -0.0172
     26 C         140.5072  143.1171  169.0857 C.3     1  UNL1        0.1037
     27 C         141.0085  141.9926  168.2289 C.2     1  UNL1        0.2175
     28 N         140.3961  141.2643  167.0693 N.2     1  UNL1       -0.0375
@<TRIPOS>BOND
     1    15    16    1
     2    16    14    1
     3    14    13    1
     4    13    12    1
     5    12     1    1
     6     1    19    1
     7    19    20    1
     8    20    21    2
     9    21    22    1
    10    22    23    2
    11    23    24    1
    12    24    25    2
    13    25    26    1
    14    26    27    1
    15    27    28    2
    16     2     1    1
    17     2     3    1
    18     3     4    1
    19     4     5    1
    20     5     6    1
    21     6     7   ar
    22     7     8   ar
    23     8     9   ar
    24     9    10   ar
    25    10    11   ar
    26    28    20    1
    27    11     2    1
    28    27    22    1
    29    11     6   ar
    30    15    17    1
    31    15    18    1
@<TRIPOS>MOLECULE
*****
 28 31 0 0 0
SMALL
GASTEIGER

@<TRIPOS>ATOM
      1 N         141.8239  141.7702  167.2313 N.3     1  UNL1       -0.2586
      2 C         140.6167  141.2374  166.5181 C.3     1  UNL1        0.0982
      3 C         140.2938  139.7739  166.5805 C.3     1  UNL1        0.0224
      4 C         139.0866  139.2411  165.8673 C.3     1  UNL1        0.0065
      5 C         138.2022  140.1718  165.0917 C.3     1  UNL1        0.0277
      6 C         138.5250  141.6354  165.0293 C.ar    1  UNL1       -0.0073
      7 C         137.6406  142.5661  164.2537 C.ar    1  UNL1       -0.0015
      8 C         137.9634  144.0295  164.1913 C.ar    1  UNL1        0.0203
      9 C         139.1706  144.5623  164.9045 C.ar    1  UNL1        0.0985
     10 N         140.0551  143.6316  165.6801 N.ar    1  UNL1       -0.2471
     11 C         139.7322  142.1682  165.7425 C.ar    1  UNL1        0.0695
     12 C         141.7665  142.0377  168.7061 C.3     1  UNL1        0.0730
     13 C         140.5883  142.7575  169.2925 C.3     1  UNL1        0.0188
     14 C         139.6483  142.0338  170.2106 C.3     1  UNL1        0.0183
     15 N         139.8470  139.6228  171.1580 N.3     1  UNL1       -0.3211
     16 C         139.4389  140.5565  170.0572 C.3     1  UNL1        0.0652
     17 H         139.6334  138.6631  170.8865 H       1  UNL1        0.1189
     18 H         139.3361  139.8570  172.0092 H       1  UNL1        0.1189
     19 C         143.0887  142.0355  166.4696 C.3     1  UNL1        0.1979
     20 C         143.2769  141.4504  165.1013 C.2     1  UNL1        0.3675
     21 N         143.1802  142.1953  163.8030 N.2     1  UNL1       -0.0337
     22 C         143.4383  141.2230  162.6903 C.2     1  UNL1        0.2318
     23 C         143.4732  141.3892  161.2000 C.2     1  UNL1        0.0498
     24 C         143.7643  140.2096  160.3204 C.2     1  UNL1       -0.0002
     25 C         144.0205  138.8637  160.9312 C.2     1  UNL1       -0.0172
     26 C         143.9856  138.6975  162.4215 C.3     1  UNL1        0.1037
     27 C         143.6946  139.8771  163.3011 C.2     1  UNL1        0.2175
     28 N         143.5948  140.0176  164.7912 N.2     1  UNL1       -0.0375
@<TRIPOS>BOND
     1    15    16    1
     2    16    14    1
     3    14    13    1
     4    13    12    1
     5    12     1    1
     6     1    19    1
     7    19    20    1
     8    20    21    2
     9    21    22    1
    10    22    23    2
    11    23    24    1
    12    24    25    2
    13    25    26    1
    14    26    27    1
    15    27    28    2
    16     2     1    1
    17     2     3    1
    18     3     4    1
    19     4     5    1
    20     5     6    1
    21     6     7   ar
    22     7     8   ar
    23     8     9   ar
    24     9    10   ar
    25    10    11   ar
    26    28    20    1
    27    11     2    1
    28    27    22    1
    29    11     6   ar
    30    15    17    1
    31    15    18    1
@<TRIPOS>MOLECULE
*****
 28 31 0 0 0
SMALL
GASTEIGER

@<TRIPOS>ATOM
      1 N         141.5688  141.3767  167.3871 N.3     1  UNL1       -0.2586
      2 C         142.5529  140.5748  166.5879 C.3     1  UNL1        0.0982
      3 C         142.7856  139.1299  166.9165 C.3     1  UNL1        0.0224
      4 C         143.7697  138.3281  166.1174 C.3     1  UNL1        0.0065
      5 C         144.5211  138.9712  164.9897 C.3     1  UNL1        0.0277
      6 C         144.2885  140.4162  164.6611 C.ar    1  UNL1       -0.0073
      7 C         145.0399  141.0593  163.5334 C.ar    1  UNL1       -0.0015
      8 C         144.8073  142.5042  163.2048 C.ar    1  UNL1        0.0203
      9 C         143.8232  143.3060  164.0040 C.ar    1  UNL1        0.0985
     10 N         143.0717  142.6629  165.1316 N.ar    1  UNL1       -0.2471
     11 C         143.3044  141.2180  165.4602 C.ar    1  UNL1        0.0695
     12 C         142.0569  142.4004  168.3687 C.3     1  UNL1        0.0730
     13 C         143.2291  142.0929  169.2526 C.3     1  UNL1        0.0188
     14 C         143.1565  140.9532  170.2251 C.3     1  UNL1        0.0183
     15 N         141.1370  139.3332  170.4427 N.3     1  UNL1       -0.3211
     16 C         141.8457  140.5886  170.8568 C.3     1  UNL1        0.0652
     17 H         140.2683  139.2435  170.9698 H       1  UNL1        0.1189
     18 H         141.7338  138.5278  170.6313 H       1  UNL1        0.1189
     19 C         140.0965  141.1547  167.2045 C.3     1  UNL1        0.1979
     20 C         139.5743  140.6200  165.9040 C.2     1  UNL1        0.3675
     21 N         139.5805  139.1825  165.4756 N.2     1  UNL1       -0.0337
     22 C         138.9642  139.1029  164.1104 C.2     1  UNL1        0.2318
     23 C         138.7054  137.9457  163.1919 C.2     1  UNL1        0.0498
     24 C         138.0596  138.1768  161.8579 C.2     1  UNL1       -0.0002
     25 C         137.6725  139.5652  161.4426 C.2     1  UNL1       -0.0172
     26 C         137.9312  140.7224  162.3611 C.3     1  UNL1        0.1037
     27 C         138.5770  140.4913  163.6950 C.2     1  UNL1        0.2175
     28 N         138.9541  141.4289  164.8035 N.2     1  UNL1       -0.0375
@<TRIPOS>BOND
     1    15    16    1
     2    16    14    1
     3    14    13    1
     4    13    12    1
     5    12     1    1
     6     1    19    1
     7    19    20    1
     8    20    21    2
     9    21    22    1
    10    22    23    2
    11    23    24    1
    12    24    25    2
    13    25    26    1
    14    26    27    1
    15    27    28    2
    16     2     1    1
    17     2     3    1
    18     3     4    1
    19     4     5    1
    20     5     6    1
    21     6     7   ar
    22     7     8   ar
    23     8     9   ar
    24     9    10   ar
    25    10    11   ar
    26    28    20    1
    27    11     2    1
    28    27    22    1
    29    11     6   ar
    30    15    17    1
    31    15    18    1
@<TRIPOS>MOLECULE
*****
 28 31 0 0 0
SMALL
GASTEIGER

@<TRIPOS>ATOM
      1 N         142.6405  140.3447  166.8739 N.3     1  UNL1       -0.2586
      2 C         142.7735  139.6910  165.5304 C.3     1  UNL1        0.0982
      3 C         144.0742  139.7630  164.7868 C.3     1  UNL1        0.0224
      4 C         144.2072  139.1094  163.4433 C.3     1  UNL1        0.0065
      5 C         143.0396  138.3837  162.8434 C.3     1  UNL1        0.0277
      6 C         141.7388  138.3116  163.5870 C.ar    1  UNL1       -0.0073
      7 C         140.5712  137.5859  162.9872 C.ar    1  UNL1       -0.0015
      8 C         139.2705  137.5139  163.7308 C.ar    1  UNL1        0.0203
      9 C         139.1375  138.1675  165.0743 C.ar    1  UNL1        0.0985
     10 N         140.3051  138.8932  165.6742 N.ar    1  UNL1       -0.2471
     11 C         141.6058  138.9653  164.9306 C.ar    1  UNL1        0.0695
     12 C         142.7418  139.5198  168.1226 C.3     1  UNL1        0.0730
     13 C         142.2950  140.0897  169.4363 C.3     1  UNL1        0.0188
     14 C         140.9763  139.6796  170.0220 C.3     1  UNL1        0.0183
     15 N         138.4295  140.1168  170.2915 N.3     1  UNL1       -0.3211
     16 C         139.7085  140.3151  169.5333 C.3     1  UNL1        0.0652
     17 H         137.6745  140.6157  169.8210 H       1  UNL1        0.1189
     18 H         138.5367  140.4780  171.2394 H       1  UNL1        0.1189
     19 C         142.4062  141.8233  166.9687 C.3     1  UNL1        0.1979
     20 C         141.4414  142.4911  166.0343 C.2     1  UNL1        0.3675
     21 N         141.7930  143.4806  164.9631 N.2     1  UNL1       -0.0337
     22 C         140.5246  143.8878  164.2737 C.2     1  UNL1        0.2318
     23 C         140.2569  144.8350  163.1419 C.2     1  UNL1        0.0498
     24 C         138.8536  145.0445  162.6552 C.2     1  UNL1       -0.0002
     25 C         137.7181  144.3067  163.3003 C.2     1  UNL1       -0.0172
     26 C         137.9858  143.3594  164.4321 C.3     1  UNL1        0.1037
     27 C         139.3890  143.1500  164.9188 C.2     1  UNL1        0.2175
     28 N         139.9556  142.2868  166.0069 N.2     1  UNL1       -0.0375
@<TRIPOS>BOND
     1    15    16    1
     2    16    14    1
     3    14    13    1
     4    13    12    1
     5    12     1    1
     6     1    19    1
     7    19    20    1
     8    20    21    2
     9    21    22    1
    10    22    23    2
    11    23    24    1
    12    24    25    2
    13    25    26    1
    14    26    27    1
    15    27    28    2
    16     2     1    1
    17     2     3    1
    18     3     4    1
    19     4     5    1
    20     5     6    1
    21     6     7   ar
    22     7     8   ar
    23     8     9   ar
    24     9    10   ar
    25    10    11   ar
    26    28    20    1
    27    11     2    1
    28    27    22    1
    29    11     6   ar
    30    15    17    1
    31    15    18    1
@<TRIPOS>MOLECULE
*****
 28 31 0 0 0
SMALL
GASTEIGER

@<TRIPOS>ATOM
      1 N         140.8357  141.7094  167.5724 N.3     1  UNL1       -0.2586
      2 C         139.8975  141.2533  166.4945 C.3     1  UNL1        0.0982
      3 C         139.5775  139.7954  166.3463 C.3     1  UNL1        0.0224
      4 C         138.6393  139.3392  165.2684 C.3     1  UNL1        0.0065
      5 C         138.0212  140.3410  164.3387 C.3     1  UNL1        0.0277
      6 C         138.3413  141.7990  164.4869 C.ar    1  UNL1       -0.0073
      7 C         137.7232  142.8008  163.5573 C.ar    1  UNL1       -0.0015
      8 C         138.0432  144.2587  163.7055 C.ar    1  UNL1        0.0203
      9 C         138.9813  144.7149  164.7834 C.ar    1  UNL1        0.0985
     10 N         139.5994  143.7131  165.7131 N.ar    1  UNL1       -0.2471
     11 C         139.2794  142.2552  165.5648 C.ar    1  UNL1        0.0695
     12 C         140.2933  142.1759  168.8908 C.3     1  UNL1        0.0730
     13 C         139.6642  141.1929  169.8331 C.3     1  UNL1        0.0188
     14 C         140.5002  140.5154  170.8783 C.3     1  UNL1        0.0183
     15 N         142.1708  142.1807  171.9673 N.3     1  UNL1       -0.3211
     16 C         141.9089  140.9694  171.1222 C.3     1  UNL1        0.0652
     17 H         143.1760  142.3430  172.0266 H       1  UNL1        0.1189
     18 H         141.7949  142.0299  172.9035 H       1  UNL1        0.1189
     19 C         142.3163  141.6990  167.3319 C.3     1  UNL1        0.1979
     20 C         142.8500  141.8162  165.9350 C.2     1  UNL1        0.3675
     21 N         143.1333  140.6773  165.0008 N.2     1  UNL1       -0.0337
     22 C         143.6525  141.2502  163.7154 C.2     1  UNL1        0.2318
     23 C         144.0960  140.6053  162.4359 C.2     1  UNL1        0.0498
     24 C         144.5769  141.4534  161.2960 C.2     1  UNL1       -0.0002
     25 C         144.6144  142.9464  161.4356 C.2     1  UNL1       -0.0172
     26 C         144.1710  143.5913  162.7152 C.3     1  UNL1        0.1037
     27 C         143.6900  142.7432  163.8551 C.2     1  UNL1        0.2175
     28 N         143.1940  143.0931  165.2269 N.2     1  UNL1       -0.0375
@<TRIPOS>BOND
     1    15    16    1
     2    16    14    1
     3    14    13    1
     4    13    12    1
     5    12     1    1
     6     1    19    1
     7    19    20    1
     8    20    21    2
     9    21    22    1
    10    22    23    2
    11    23    24    1
    12    24    25    2
    13    25    26    1
    14    26    27    1
    15    27    28    2
    16     2     1    1
    17     2     3    1
    18     3     4    1
    19     4     5    1
    20     5     6    1
    21     6     7   ar
    22     7     8   ar
    23     8     9   ar
    24     9    10   ar
    25    10    11   ar
    26    28    20    1
    27    11     2    1
    28    27    22    1
    29    11     6   ar
    30    15    17    1
    31    15    18    1
@<TRIPOS>MOLECULE
*****
 28 31 0 0 0
SMALL
GASTEIGER

@<TRIPOS>ATOM
      1 N         140.2601  141.5095  166.5140 N.3     1  UNL1       -0.2586
      2 C         140.1165  142.6522  165.5529 C.3     1  UNL1        0.0982
      3 C         138.7521  143.1077  165.1276 C.3     1  UNL1        0.0224
      4 C         138.6086  144.2504  164.1666 C.3     1  UNL1        0.0065
      5 C         139.8295  144.9376  163.6308 C.3     1  UNL1        0.0277
      6 C         141.1940  144.4822  164.0560 C.ar    1  UNL1       -0.0073
      7 C         142.4149  145.1694  163.5202 C.ar    1  UNL1       -0.0015
      8 C         143.7793  144.7139  163.9455 C.ar    1  UNL1        0.0203
      9 C         143.9228  143.5712  164.9066 C.ar    1  UNL1        0.0985
     10 N         142.7019  142.8840  165.4424 N.ar    1  UNL1       -0.2471
     11 C         141.3375  143.3395  165.0171 C.ar    1  UNL1        0.0695
     12 C         140.6045  141.7756  167.9494 C.3     1  UNL1        0.0730
     13 C         140.3666  143.1344  168.5384 C.3     1  UNL1        0.0188
     14 C         140.5353  143.3527  170.0129 C.3     1  UNL1        0.0183
     15 N         141.9768  142.1354  171.7990 N.3     1  UNL1       -0.3211
     16 C         140.7597  142.1821  170.9235 C.3     1  UNL1        0.0652
     17 H         141.9682  141.2755  172.3475 H       1  UNL1        0.1189
     18 H         141.9750  142.9392  172.4269 H       1  UNL1        0.1189
     19 C         140.0591  140.1008  166.0395 C.3     1  UNL1        0.1979
     20 C         140.8201  139.5941  164.8503 C.2     1  UNL1        0.3675
     21 N         142.3131  139.5425  164.7156 N.2     1  UNL1       -0.0337
     22 C         142.6374  138.9666  163.3690 C.2     1  UNL1        0.2318
     23 C         143.9428  138.6800  162.6879 C.2     1  UNL1        0.0498
     24 C         143.9555  138.0892  161.3093 C.2     1  UNL1       -0.0002
     25 C         142.6628  137.7849  160.6118 C.2     1  UNL1       -0.0172
     26 C         141.3575  138.0715  161.2929 C.3     1  UNL1        0.1037
     27 C         141.3448  138.6624  162.6715 C.2     1  UNL1        0.2175
     28 N         140.2216  139.0502  163.5869 N.2     1  UNL1       -0.0375
@<TRIPOS>BOND
     1    15    16    1
     2    16    14    1
     3    14    13    1
     4    13    12    1
     5    12     1    1
     6     1    19    1
     7    19    20    1
     8    20    21    2
     9    21    22    1
    10    22    23    2
    11    23    24    1
    12    24    25    2
    13    25    26    1
    14    26    27    1
    15    27    28    2
    16     2     1    1
    17     2     3    1
    18     3     4    1
    19     4     5    1
    20     5     6    1
    21     6     7   ar
    22     7     8   ar
    23     8     9   ar
    24     9    10   ar
    25    10    11   ar
    26    28    20    1
    27    11     2    1
    28    27    22    1
    29    11     6   ar
    30    15    17    1
    31    15    18    1
@<TRIPOS>MOLECULE
*****
 28 31 0 0 0
SMALL
GASTEIGER

@<TRIPOS>ATOM
      1 N         142.5300  140.9337  163.6038 N.3     1  UNL1       -0.2586
      2 C         141.0821  140.8792  163.9919 C.3     1  UNL1        0.0982
      3 C         140.4096  139.5540  164.1957 C.3     1  UNL1        0.0224
      4 C         138.9617  139.4995  164.5838 C.3     1  UNL1        0.0065
      5 C         138.1863  140.7702  164.7681 C.3     1  UNL1        0.0277
      6 C         138.8588  142.0955  164.5644 C.ar    1  UNL1       -0.0073
      7 C         138.0834  143.3662  164.7487 C.ar    1  UNL1       -0.0015
      8 C         138.7558  144.6914  164.5450 C.ar    1  UNL1        0.0203
      9 C         140.2037  144.7459  164.1569 C.ar    1  UNL1        0.0985
     10 N         140.9792  143.4752  163.9725 N.ar    1  UNL1       -0.2471
     11 C         140.3067  142.1500  164.1763 C.ar    1  UNL1        0.0695
     12 C         142.9168  140.9855  162.1555 C.3     1  UNL1        0.0730
     13 C         144.2963  141.4246  161.7628 C.3     1  UNL1        0.0188
     14 C         144.5657  142.8686  161.4590 C.3     1  UNL1        0.0183
     15 N         143.3601  144.9863  162.3599 N.3     1  UNL1       -0.3211
     16 C         144.3869  143.9059  162.5277 C.3     1  UNL1        0.0652
     17 H         143.3751  145.5992  163.1752 H       1  UNL1        0.1189
     18 H         142.4356  144.5654  162.2679 H       1  UNL1        0.1189
     19 C         143.5911  140.9365  164.6641 C.3     1  UNL1        0.1979
     20 C         143.2053  141.0230  166.1110 C.2     1  UNL1        0.3675
     21 N         143.1385  142.2764  166.9323 N.2     1  UNL1       -0.0337
     22 C         142.7104  141.8993  168.3196 C.2     1  UNL1        0.2318
     23 C         142.4752  142.7175  169.5546 C.2     1  UNL1        0.0498
     24 C         142.0422  142.0491  170.8257 C.2     1  UNL1       -0.0002
     25 C         141.8443  140.5627  170.8618 C.2     1  UNL1       -0.0172
     26 C         142.0795  139.7445  169.6268 C.3     1  UNL1        0.1037
     27 C         142.5126  140.4129  168.3557 C.2     1  UNL1        0.2175
     28 N         142.8184  139.8712  166.9907 N.2     1  UNL1       -0.0375
@<TRIPOS>BOND
     1    15    16    1
     2    16    14    1
     3    14    13    1
     4    13    12    1
     5    12     1    1
     6     1    19    1
     7    19    20    1
     8    20    21    2
     9    21    22    1
    10    22    23    2
    11    23    24    1
    12    24    25    2
    13    25    26    1
    14    26    27    1
    15    27    28    2
    16     2     1    1
    17     2     3    1
    18     3     4    1
    19     4     5    1
    20     5     6    1
    21     6     7   ar
    22     7     8   ar
    23     8     9   ar
    24     9    10   ar
    25    10    11   ar
    26    28    20    1
    27    11     2    1
    28    27    22    1
    29    11     6   ar
    30    15    17    1
    31    15    18    1
