@<TRIPOS>MOLECULE
*****
 19 20 0 0 0
SMALL
GASTEIGER

@<TRIPOS>ATOM
      1 C         140.5425  140.4091  167.2280 C.ar    1  UNL1        0.0511
      2 C         140.2326  140.5796  168.6857 C.ar    1  UNL1        0.0163
      3 C         141.1358  139.9763  169.7201 C.ar    1  UNL1        0.0253
      4 C         142.3491  139.2024  169.2969 C.ar    1  UNL1        0.1365
      5 C         142.6591  139.0320  167.8393 C.ar    1  UNL1        0.1541
      6 O         143.8724  138.2581  167.4160 O.3     1  UNL1       -0.5039
      7 C         141.7558  139.6353  166.8048 C.ar    1  UNL1        0.0527
      8 H         144.4366  137.8812  168.0622 H       1  UNL1        0.2923
      9 C         138.5556  140.1844  165.5693 C.3     1  UNL1        0.1122
     10 N         139.6393  141.0125  166.1936 N.pl3   1  UNL1       -0.3040
     11 C         139.8197  142.4440  165.7834 C.3     1  UNL1        0.1122
     12 N         143.2523  138.5991  170.3314 N.2     1  UNL1       -0.1435
     13 N         143.6913  137.1706  170.2024 N.2     1  UNL1       -0.1284
     14 C         144.5946  136.5672  171.2369 C.ar    1  UNL1        0.1838
     15 C         144.4991  135.1043  171.5545 C.ar    1  UNL1        0.0406
     16 C         145.4023  134.5010  172.5890 C.ar    1  UNL1        0.0048
     17 C         146.4011  135.3605  173.3058 C.ar    1  UNL1        0.0208
     18 C         146.4965  136.8234  172.9881 C.ar    1  UNL1        0.1006
     19 N         145.5933  137.4267  171.9537 N.ar    1  UNL1       -0.2236
@<TRIPOS>BOND
     1     9    10    1
     2    10    11    1
     3    10     1    1
     4     1     2   ar
     5     2     3   ar
     6     3     4   ar
     7     4    12    1
     8    12    13    2
     9    13    14    1
    10    14    15   ar
    11    15    16   ar
    12    16    17   ar
    13    17    18   ar
    14    18    19   ar
    15     4     5   ar
    16     5     6    1
    17     5     7   ar
    18     7     1   ar
    19    19    14   ar
    20     6     8    1
@<TRIPOS>MOLECULE
*****
 19 20 0 0 0
SMALL
GASTEIGER

@<TRIPOS>ATOM
      1 C         140.5888  141.8314  167.4638 C.ar    1  UNL1        0.0511
      2 C         139.8241  140.5771  167.1607 C.ar    1  UNL1        0.0163
      3 C         139.0943  139.8601  168.2576 C.ar    1  UNL1        0.0253
      4 C         139.1293  140.3973  169.6576 C.ar    1  UNL1        0.1365
      5 C         139.8940  141.6516  169.9607 C.ar    1  UNL1        0.1541
      6 O         139.9290  142.1889  171.3608 O.3     1  UNL1       -0.5039
      7 C         140.6237  142.3686  168.8638 C.ar    1  UNL1        0.0527
      8 H         139.4731  141.7410  172.0460 H       1  UNL1        0.2923
      9 C         142.8023  142.3841  166.2209 C.3     1  UNL1        0.1122
     10 N         141.3185  142.5485  166.3668 N.pl3   1  UNL1       -0.3040
     11 C         140.5645  143.4299  165.4158 C.3     1  UNL1        0.1122
     12 N         138.3995  139.6803  170.7546 N.2     1  UNL1       -0.1435
     13 N         137.2501  138.7751  170.4238 N.2     1  UNL1       -0.1284
     14 C         136.5204  138.0580  171.5208 C.ar    1  UNL1        0.1838
     15 C         135.2849  138.6624  172.1195 C.ar    1  UNL1        0.0406
     16 C         134.5552  137.9454  173.2165 C.ar    1  UNL1        0.0048
     17 C         135.0608  136.6239  173.7147 C.ar    1  UNL1        0.0208
     18 C         136.2962  136.0196  173.1159 C.ar    1  UNL1        0.1006
     19 N         137.0260  136.7366  172.0189 N.ar    1  UNL1       -0.2236
@<TRIPOS>BOND
     1     9    10    1
     2    10    11    1
     3    10     1    1
     4     1     2   ar
     5     2     3   ar
     6     3     4   ar
     7     4    12    1
     8    12    13    2
     9    13    14    1
    10    14    15   ar
    11    15    16   ar
    12    16    17   ar
    13    17    18   ar
    14    18    19   ar
    15     4     5   ar
    16     5     6    1
    17     5     7   ar
    18     7     1   ar
    19    19    14   ar
    20     6     8    1
@<TRIPOS>MOLECULE
*****
 19 20 0 0 0
SMALL
GASTEIGER

@<TRIPOS>ATOM
      1 C         140.4996  141.8785  167.4318 C.ar    1  UNL1        0.0511
      2 C         140.7004  142.2869  168.8610 C.ar    1  UNL1        0.0163
      3 C         140.0350  141.5155  169.9620 C.ar    1  UNL1        0.0253
      4 C         139.1688  140.3357  169.6338 C.ar    1  UNL1        0.1365
      5 C         138.9681  139.9273  168.2045 C.ar    1  UNL1        0.1541
      6 O         138.1018  138.7475  167.8762 O.3     1  UNL1       -0.5039
      7 C         139.6334  140.6987  167.1035 C.ar    1  UNL1        0.0527
      8 H         137.6862  138.2656  168.5639 H       1  UNL1        0.2923
      9 C         140.3430  143.4991  165.4071 C.3     1  UNL1        0.1122
     10 N         141.1650  142.6499  166.3308 N.pl3   1  UNL1       -0.3040
     11 C         142.6524  142.5721  166.1534 C.3     1  UNL1        0.1122
     12 N         138.5034  139.5643  170.7348 N.2     1  UNL1       -0.1435
     13 N         137.1490  138.9589  170.5138 N.2     1  UNL1       -0.1284
     14 C         136.4836  138.1875  171.6148 C.ar    1  UNL1        0.1838
     15 C         137.1791  137.0106  172.2324 C.ar    1  UNL1        0.0406
     16 C         136.5137  136.2392  173.3334 C.ar    1  UNL1        0.0048
     17 C         135.1528  136.6447  173.8168 C.ar    1  UNL1        0.0208
     18 C         134.4574  137.8214  173.1992 C.ar    1  UNL1        0.1006
     19 N         135.1227  138.5929  172.0982 N.ar    1  UNL1       -0.2236
@<TRIPOS>BOND
     1     9    10    1
     2    10    11    1
     3    10     1    1
     4     1     2   ar
     5     2     3   ar
     6     3     4   ar
     7     4    12    1
     8    12    13    2
     9    13    14    1
    10    14    15   ar
    11    15    16   ar
    12    16    17   ar
    13    17    18   ar
    14    18    19   ar
    15     4     5   ar
    16     5     6    1
    17     5     7   ar
    18     7     1   ar
    19    19    14   ar
    20     6     8    1
@<TRIPOS>MOLECULE
*****
 19 20 0 0 0
SMALL
GASTEIGER

@<TRIPOS>ATOM
      1 C         139.1832  139.8755  160.6393 C.ar    1  UNL1        0.0511
      2 C         140.3592  139.6554  161.5440 C.ar    1  UNL1        0.0163
      3 C         140.2633  140.0100  162.9984 C.ar    1  UNL1        0.0253
      4 C         138.9915  140.5846  163.5480 C.ar    1  UNL1        0.1365
      5 C         137.8155  140.8047  162.6433 C.ar    1  UNL1        0.1541
      6 O         136.5436  141.3794  163.1929 O.3     1  UNL1       -0.5039
      7 C         137.9114  140.4502  161.1889 C.ar    1  UNL1        0.0527
      8 H         136.4836  141.6009  164.1014 H       1  UNL1        0.2923
      9 C         138.4545  140.2639  158.1760 C.3     1  UNL1        0.1122
     10 N         139.2791  139.5210  159.1850 N.pl3   1  UNL1       -0.3040
     11 C         140.1996  138.4236  158.7396 C.3     1  UNL1        0.1122
     12 N         138.8956  140.9391  165.0023 N.2     1  UNL1       -0.1435
     13 N         140.1263  140.9276  165.8598 N.2     1  UNL1       -0.1284
     14 C         140.0304  141.2822  167.3142 C.ar    1  UNL1        0.1838
     15 C         140.4895  142.6287  167.7897 C.ar    1  UNL1        0.0406
     16 C         140.3936  142.9833  169.2441 C.ar    1  UNL1        0.0048
     17 C         139.8387  141.9912  170.2229 C.ar    1  UNL1        0.0208
     18 C         139.3796  140.6447  169.7473 C.ar    1  UNL1        0.1006
     19 N         139.4755  140.2902  168.2929 N.ar    1  UNL1       -0.2236
@<TRIPOS>BOND
     1     9    10    1
     2    10    11    1
     3    10     1    1
     4     1     2   ar
     5     2     3   ar
     6     3     4   ar
     7     4    12    1
     8    12    13    2
     9    13    14    1
    10    14    15   ar
    11    15    16   ar
    12    16    17   ar
    13    17    18   ar
    14    18    19   ar
    15     4     5   ar
    16     5     6    1
    17     5     7   ar
    18     7     1   ar
    19    19    14   ar
    20     6     8    1
@<TRIPOS>MOLECULE
*****
 19 20 0 0 0
SMALL
GASTEIGER

@<TRIPOS>ATOM
      1 C         141.0645  143.9806  163.5144 C.ar    1  UNL1        0.0511
      2 C         142.1049  143.4742  162.5599 C.ar    1  UNL1        0.0163
      3 C         142.1707  144.0190  161.1639 C.ar    1  UNL1        0.0253
      4 C         141.1961  145.0703  160.7224 C.ar    1  UNL1        0.1365
      5 C         140.1557  145.5767  161.6768 C.ar    1  UNL1        0.1541
      6 O         139.1810  146.6281  161.2353 O.3     1  UNL1       -0.5039
      7 C         140.0899  145.0319  163.0728 C.ar    1  UNL1        0.0527
      8 H         139.2221  146.9684  160.3633 H       1  UNL1        0.2923
      9 C         142.1894  142.7407  165.5011 C.3     1  UNL1        0.1122
     10 N         140.9986  143.4358  164.9104 N.pl3   1  UNL1       -0.3040
     11 C         139.7421  143.5860  165.7156 C.3     1  UNL1        0.1122
     12 N         141.2619  145.6152  159.3264 N.2     1  UNL1       -0.1435
     13 N         140.0331  145.6246  158.4663 N.2     1  UNL1       -0.1284
     14 C         140.0989  146.1694  157.0703 C.ar    1  UNL1        0.1838
     15 C         141.0525  145.5742  156.0770 C.ar    1  UNL1        0.0406
     16 C         141.1183  146.1190  154.6810 C.ar    1  UNL1        0.0048
     17 C         140.2305  147.2591  154.2783 C.ar    1  UNL1        0.0208
     18 C         139.2771  147.8543  155.2715 C.ar    1  UNL1        0.1006
     19 N         139.2112  147.3095  156.6675 N.ar    1  UNL1       -0.2236
@<TRIPOS>BOND
     1     9    10    1
     2    10    11    1
     3    10     1    1
     4     1     2   ar
     5     2     3   ar
     6     3     4   ar
     7     4    12    1
     8    12    13    2
     9    13    14    1
    10    14    15   ar
    11    15    16   ar
    12    16    17   ar
    13    17    18   ar
    14    18    19   ar
    15     4     5   ar
    16     5     6    1
    17     5     7   ar
    18     7     1   ar
    19    19    14   ar
    20     6     8    1
@<TRIPOS>MOLECULE
*****
 19 20 0 0 0
SMALL
GASTEIGER

@<TRIPOS>ATOM
      1 C         138.9918  138.9246  164.9492 C.ar    1  UNL1        0.0511
      2 C         138.2313  139.7059  163.9191 C.ar    1  UNL1        0.0163
      3 C         138.5118  139.4958  162.4606 C.ar    1  UNL1        0.0253
      4 C         139.5529  138.5045  162.0323 C.ar    1  UNL1        0.1365
      5 C         140.3133  137.7232  163.0625 C.ar    1  UNL1        0.1541
      6 O         141.3544  136.7318  162.6342 O.3     1  UNL1       -0.5039
      7 C         140.0328  137.9333  164.5209 C.ar    1  UNL1        0.0527
      8 H         141.5297  136.6006  161.7231 H       1  UNL1        0.2923
      9 C         139.5679  140.0694  167.2092 C.3     1  UNL1        0.1122
     10 N         138.7112  139.1347  166.4077 N.pl3   1  UNL1       -0.3040
     11 C         137.5740  138.4102  167.0647 C.3     1  UNL1        0.1122
     12 N         139.8334  138.2944  160.5738 N.2     1  UNL1       -0.1435
     13 N         141.2243  138.4785  160.0435 N.2     1  UNL1       -0.1284
     14 C         141.5049  138.2685  158.5850 C.ar    1  UNL1        0.1838
     15 C         140.3697  138.0864  157.6215 C.ar    1  UNL1        0.0406
     16 C         140.6502  137.8763  156.1630 C.ar    1  UNL1        0.0048
     17 C         142.0660  137.8483  155.6680 C.ar    1  UNL1        0.0208
     18 C         143.2011  138.0303  156.6315 C.ar    1  UNL1        0.1006
     19 N         142.9205  138.2404  158.0900 N.ar    1  UNL1       -0.2236
@<TRIPOS>BOND
     1     9    10    1
     2    10    11    1
     3    10     1    1
     4     1     2   ar
     5     2     3   ar
     6     3     4   ar
     7     4    12    1
     8    12    13    2
     9    13    14    1
    10    14    15   ar
    11    15    16   ar
    12    16    17   ar
    13    17    18   ar
    14    18    19   ar
    15     4     5   ar
    16     5     6    1
    17     5     7   ar
    18     7     1   ar
    19    19    14   ar
    20     6     8    1
@<TRIPOS>MOLECULE
*****
 19 20 0 0 0
SMALL
GASTEIGER

@<TRIPOS>ATOM
      1 C         143.6455  142.1209  160.4007 C.ar    1  UNL1        0.0511
      2 C         142.3934  141.7923  161.1585 C.ar    1  UNL1        0.0163
      3 C         142.4629  141.4867  162.6254 C.ar    1  UNL1        0.0253
      4 C         143.7845  141.5098  163.3345 C.ar    1  UNL1        0.1365
      5 C         145.0365  141.8385  162.5768 C.ar    1  UNL1        0.1541
      6 O         146.3582  141.8616  163.2859 O.3     1  UNL1       -0.5039
      7 C         144.9670  142.1440  161.1099 C.ar    1  UNL1        0.0527
      8 H         146.4016  141.6707  164.2022 H       1  UNL1        0.2923
      9 C         142.8986  143.6780  158.4597 C.3     1  UNL1        0.1122
     10 N         143.5760  142.4265  158.9338 N.pl3   1  UNL1       -0.3040
     11 C         144.1839  141.4806  157.9411 C.3     1  UNL1        0.1122
     12 N         143.8539  141.2043  164.8014 N.2     1  UNL1       -0.1435
     13 N         142.8758  141.8367  165.7464 N.2     1  UNL1       -0.1284
     14 C         142.9452  141.5312  167.2133 C.ar    1  UNL1        0.1838
     15 C         142.4695  140.2043  167.7264 C.ar    1  UNL1        0.0406
     16 C         142.5390  139.8987  169.1933 C.ar    1  UNL1        0.0048
     17 C         143.0842  140.9200  170.1472 C.ar    1  UNL1        0.0208
     18 C         143.5600  142.2468  169.6341 C.ar    1  UNL1        0.1006
     19 N         143.4905  142.5524  168.1672 N.ar    1  UNL1       -0.2236
@<TRIPOS>BOND
     1     9    10    1
     2    10    11    1
     3    10     1    1
     4     1     2   ar
     5     2     3   ar
     6     3     4   ar
     7     4    12    1
     8    12    13    2
     9    13    14    1
    10    14    15   ar
    11    15    16   ar
    12    16    17   ar
    13    17    18   ar
    14    18    19   ar
    15     4     5   ar
    16     5     6    1
    17     5     7   ar
    18     7     1   ar
    19    19    14   ar
    20     6     8    1
@<TRIPOS>MOLECULE
*****
 19 20 0 0 0
SMALL
GASTEIGER

@<TRIPOS>ATOM
      1 C         138.4905  139.2283  164.8258 C.ar    1  UNL1        0.0511
      2 C         138.8668  138.0377  163.9947 C.ar    1  UNL1        0.0163
      3 C         138.7269  138.0905  162.5021 C.ar    1  UNL1        0.0253
      4 C         138.2107  139.3338  161.8407 C.ar    1  UNL1        0.1365
      5 C         137.8344  140.5244  162.6719 C.ar    1  UNL1        0.1541
      6 O         137.3181  141.7679  162.0105 O.3     1  UNL1       -0.5039
      7 C         137.9743  140.4716  164.1644 C.ar    1  UNL1        0.0527
      8 H         137.2307  141.8009  161.0782 H       1  UNL1        0.2923
      9 C         139.7940  139.8457  166.9867 C.3     1  UNL1        0.1122
     10 N         138.6304  139.1755  166.3183 N.pl3   1  UNL1       -0.3040
     11 C         137.6067  138.4525  167.1425 C.3     1  UNL1        0.1122
     12 N         138.0708  139.3866  160.3482 N.2     1  UNL1       -0.1435
     13 N         138.4827  140.6193  159.5994 N.2     1  UNL1       -0.1284
     14 C         138.3428  140.6721  158.1069 C.ar    1  UNL1        0.1838
     15 C         139.5640  140.7794  157.2425 C.ar    1  UNL1        0.0406
     16 C         139.4241  140.8321  155.7499 C.ar    1  UNL1        0.0048
     17 C         138.0629  140.7777  155.1219 C.ar    1  UNL1        0.0208
     18 C         136.8418  140.6704  155.9863 C.ar    1  UNL1        0.1006
     19 N         136.9817  140.6176  157.4788 N.ar    1  UNL1       -0.2236
@<TRIPOS>BOND
     1     9    10    1
     2    10    11    1
     3    10     1    1
     4     1     2   ar
     5     2     3   ar
     6     3     4   ar
     7     4    12    1
     8    12    13    2
     9    13    14    1
    10    14    15   ar
    11    15    16   ar
    12    16    17   ar
    13    17    18   ar
    14    18    19   ar
    15     4     5   ar
    16     5     6    1
    17     5     7   ar
    18     7     1   ar
    19    19    14   ar
    20     6     8    1
@<TRIPOS>MOLECULE
*****
 19 20 0 0 0
SMALL
GASTEIGER

@<TRIPOS>ATOM
      1 C         144.3186  140.8316  161.8724 C.ar    1  UNL1        0.0511
      2 C         144.2110  139.4486  162.4430 C.ar    1  UNL1        0.0163
      3 C         143.7032  138.3232  161.5912 C.ar    1  UNL1        0.0253
      4 C         143.3029  138.5808  160.1688 C.ar    1  UNL1        0.1365
      5 C         143.4105  139.9638  159.5981 C.ar    1  UNL1        0.1541
      6 O         143.0103  140.2214  158.1756 O.3     1  UNL1       -0.5039
      7 C         143.9184  141.0892  160.4499 C.ar    1  UNL1        0.0527
      8 H         142.6930  139.5184  157.6435 H       1  UNL1        0.2923
      9 C         145.6566  141.6630  163.9384 C.3     1  UNL1        0.1122
     10 N         144.8264  141.9570  162.7242 N.pl3   1  UNL1       -0.3040
     11 C         144.5041  143.3764  162.3618 C.3     1  UNL1        0.1122
     12 N         142.7951  137.4554  159.3170 N.2     1  UNL1       -0.1435
     13 N         143.0822  137.4404  157.8448 N.2     1  UNL1       -0.1284
     14 C         142.5744  136.3150  156.9930 C.ar    1  UNL1        0.1838
     15 C         141.4749  136.5611  156.0027 C.ar    1  UNL1        0.0406
     16 C         140.9670  135.4357  155.1509 C.ar    1  UNL1        0.0048
     17 C         141.5587  134.0642  155.2894 C.ar    1  UNL1        0.0208
     18 C         142.6581  133.8182  156.2796 C.ar    1  UNL1        0.1006
     19 N         143.1660  134.9436  157.1315 N.ar    1  UNL1       -0.2236
@<TRIPOS>BOND
     1     9    10    1
     2    10    11    1
     3    10     1    1
     4     1     2   ar
     5     2     3   ar
     6     3     4   ar
     7     4    12    1
     8    12    13    2
     9    13    14    1
    10    14    15   ar
    11    15    16   ar
    12    16    17   ar
    13    17    18   ar
    14    18    19   ar
    15     4     5   ar
    16     5     6    1
    17     5     7   ar
    18     7     1   ar
    19    19    14   ar
    20     6     8    1
