@<TRIPOS>MOLECULE
*****
 34 36 0 0 0
SMALL
GASTEIGER

@<TRIPOS>ATOM
      1 C         141.2105  140.4421  168.2604 C.ar    1  UNL1        0.0519
      2 C         140.5895  140.7126  169.5987 C.ar    1  UNL1        0.0853
      3 C         139.1748  140.2928  169.8677 C.ar    1  UNL1        0.1045
      4 N         138.3812  139.6024  168.7984 N.ar    1  UNL1       -0.2436
      5 C         139.0022  139.3318  167.4600 C.ar    1  UNL1        0.0825
      6 C         138.2085  138.6415  166.3908 C.ar    1  UNL1        0.0191
      7 C         138.8295  138.3709  165.0525 C.ar    1  UNL1        0.0016
      8 C         140.2442  138.7908  164.7834 C.ar    1  UNL1        0.0016
      9 C         141.0379  139.4811  165.8527 C.ar    1  UNL1        0.0028
     10 C         140.4169  139.7517  167.1910 C.ar    1  UNL1        0.0309
     11 C         140.8652  138.5202  163.4451 C.ar    1  UNL1        0.0192
     12 C         142.3254  138.1908  163.3486 C.ar    1  UNL1        0.0028
     13 C         142.9464  137.9202  162.0102 C.ar    1  UNL1        0.0165
     14 C         142.1072  137.9791  160.7683 C.ar    1  UNL1        0.0828
     15 N         140.6469  138.3085  160.8649 N.ar    1  UNL1       -0.2464
     16 C         140.0260  138.5790  162.2032 C.ar    1  UNL1        0.0985
     17 C         142.7281  137.7085  159.4300 C.3     1  UNL1        0.1962
     18 S         142.7542  138.7835  158.3843 S.O2    1  UNL1       -0.0025
     19 C         142.7803  139.8586  157.3385 C.3     1  UNL1        0.1765
     20 O         143.9268  139.4210  159.0688 O.2     1  UNL1       -0.1726
     21 O         141.5816  138.1461  157.6997 O.2     1  UNL1       -0.1726
     22 C         141.3832  141.4031  170.6681 C.2     1  UNL1        0.2455
     23 N         142.3211  140.6144  171.5332 N.am    1  UNL1       -0.3252
     24 O         141.2390  142.8820  170.8723 O.2     1  UNL1       -0.2703
     25 H         142.4158  139.6437  171.3991 H       1  UNL1        0.1453
     26 H         142.8420  141.0675  172.2350 H       1  UNL1        0.1453
     27 N         142.6252  140.8619  167.9914 N.pl3   1  UNL1       -0.3325
     28 H         143.3657  140.2365  168.1643 H       1  UNL1        0.1468
     29 C         142.9118  142.2347  167.4589 C.3     1  UNL1        0.0870
     30 C         142.8924  142.4847  165.9800 C.3     1  UNL1        0.0195
     31 C         144.3947  140.9371  164.5316 C.3     1  UNL1        0.0001
     32 C         144.1346  142.2708  165.1669 C.3     1  UNL1        0.0017
     33 C         141.6308  142.9485  165.3143 C.3     1  UNL1        0.0017
     34 C         140.3968  143.1912  166.1319 C.3     1  UNL1        0.0001
@<TRIPOS>BOND
     1    31    32    1
     2    32    30    1
     3    30    33    1
     4    33    34    1
     5    30    29    1
     6    29    27    1
     7    27     1    1
     8     1     2   ar
     9     2    22    1
    10    22    23   am
    11    22    24    2
    12     2     3   ar
    13     3     4   ar
    14     4     5   ar
    15     5     6   ar
    16     6     7   ar
    17     7     8   ar
    18     8    11    1
    19    11    12   ar
    20    12    13   ar
    21    13    14   ar
    22    14    17    1
    23    17    18    1
    24    18    19    1
    25    18    20    2
    26    18    21    2
    27    14    15   ar
    28    15    16   ar
    29     8     9   ar
    30     9    10   ar
    31    10     1   ar
    32    10     5   ar
    33    16    11   ar
    34    27    28    1
    35    23    25    1
    36    23    26    1
@<TRIPOS>MOLECULE
*****
 34 36 0 0 0
SMALL
GASTEIGER

@<TRIPOS>ATOM
      1 C         140.5829  141.6305  168.0671 C.ar    1  UNL1        0.0519
      2 C         140.4307  141.7369  169.5555 C.ar    1  UNL1        0.0853
      3 C         139.4760  140.8334  170.2782 C.ar    1  UNL1        0.1045
      4 N         138.6736  139.8236  169.5126 N.ar    1  UNL1       -0.2436
      5 C         138.8258  139.7172  168.0240 C.ar    1  UNL1        0.0825
      6 C         138.0233  138.7074  167.2584 C.ar    1  UNL1        0.0191
      7 C         138.1756  138.6010  165.7699 C.ar    1  UNL1        0.0016
      8 C         139.1302  139.5045  165.0472 C.ar    1  UNL1        0.0016
      9 C         139.9327  140.5143  165.8129 C.ar    1  UNL1        0.0028
     10 C         139.7804  140.6207  167.3013 C.ar    1  UNL1        0.0309
     11 C         139.2824  139.3981  163.5587 C.ar    1  UNL1        0.0192
     12 C         138.7473  138.1989  162.8339 C.ar    1  UNL1        0.0028
     13 C         138.8995  138.0925  161.3453 C.ar    1  UNL1        0.0165
     14 C         139.5868  139.1854  160.5817 C.ar    1  UNL1        0.0828
     15 N         140.1220  140.3847  161.3066 N.ar    1  UNL1       -0.2464
     16 C         139.9698  140.4910  162.7950 C.ar    1  UNL1        0.0985
     17 C         139.7390  139.0791  159.0933 C.3     1  UNL1        0.1962
     18 S         139.3261  140.2217  158.2137 S.O2    1  UNL1       -0.0025
     19 C         138.9130  141.3644  157.3340 C.3     1  UNL1        0.1765
     20 O         140.7612  140.4583  157.8472 O.2     1  UNL1       -0.1726
     21 O         137.8909  139.9851  158.5801 O.2     1  UNL1       -0.1726
     22 C         141.2331  142.7468  170.3213 C.2     1  UNL1        0.2455
     23 N         142.2817  142.2912  171.2923 N.am    1  UNL1       -0.3252
     24 O         140.9870  144.2121  170.1160 O.2     1  UNL1       -0.2703
     25 H         142.4433  141.3294  171.4270 H       1  UNL1        0.1453
     26 H         142.8084  142.9540  171.7949 H       1  UNL1        0.1453
     27 N         141.5375  142.5340  167.3443 N.pl3   1  UNL1       -0.3325
     28 H         141.2262  143.3996  166.9934 H       1  UNL1        0.1468
     29 C         142.9666  142.1187  167.1562 C.3     1  UNL1        0.0870
     30 C         143.6139  142.2475  165.8092 C.3     1  UNL1        0.0195
     31 C         143.8243  144.3280  164.2674 C.3     1  UNL1        0.0001
     32 C         144.3140  143.5193  165.4320 C.3     1  UNL1        0.0017
     33 C         143.5611  141.1043  164.8393 C.3     1  UNL1        0.0017
     34 C         143.4275  139.6981  165.3441 C.3     1  UNL1        0.0001
@<TRIPOS>BOND
     1    31    32    1
     2    32    30    1
     3    30    33    1
     4    33    34    1
     5    30    29    1
     6    29    27    1
     7    27     1    1
     8     1     2   ar
     9     2    22    1
    10    22    23   am
    11    22    24    2
    12     2     3   ar
    13     3     4   ar
    14     4     5   ar
    15     5     6   ar
    16     6     7   ar
    17     7     8   ar
    18     8    11    1
    19    11    12   ar
    20    12    13   ar
    21    13    14   ar
    22    14    17    1
    23    17    18    1
    24    18    19    1
    25    18    20    2
    26    18    21    2
    27    14    15   ar
    28    15    16   ar
    29     8     9   ar
    30     9    10   ar
    31    10     1   ar
    32    10     5   ar
    33    16    11   ar
    34    27    28    1
    35    23    25    1
    36    23    26    1
@<TRIPOS>MOLECULE
*****
 34 36 0 0 0
SMALL
GASTEIGER

@<TRIPOS>ATOM
      1 C         143.4164  141.7327  160.7195 C.ar    1  UNL1        0.0519
      2 C         143.8308  141.5738  159.2867 C.ar    1  UNL1        0.0853
      3 C         143.9303  140.2047  158.6821 C.ar    1  UNL1        0.1045
      4 N         143.6155  138.9944  159.5103 N.ar    1  UNL1       -0.2436
      5 C         143.2010  139.1532  160.9432 C.ar    1  UNL1        0.0825
      6 C         142.8862  137.9429  161.7714 C.ar    1  UNL1        0.0191
      7 C         142.4718  138.1017  163.2042 C.ar    1  UNL1        0.0016
      8 C         142.3723  139.4709  163.8088 C.ar    1  UNL1        0.0016
      9 C         142.6871  140.6812  162.9806 C.ar    1  UNL1        0.0028
     10 C         143.1015  140.5223  161.5478 C.ar    1  UNL1        0.0309
     11 C         141.9579  139.6297  165.2417 C.ar    1  UNL1        0.0192
     12 C         142.9022  139.2469  166.3424 C.ar    1  UNL1        0.0028
     13 C         142.4878  139.4057  167.7753 C.ar    1  UNL1        0.0165
     14 C         141.1290  139.9473  168.1074 C.ar    1  UNL1        0.0828
     15 N         140.1846  140.3302  167.0066 N.ar    1  UNL1       -0.2464
     16 C         140.5991  140.1713  165.5738 C.ar    1  UNL1        0.0985
     17 C         140.7146  140.1061  169.5402 C.3     1  UNL1        0.1962
     18 S         140.2475  141.4402  170.0423 S.O2    1  UNL1       -0.0025
     19 C         139.7805  142.7743  170.5445 C.3     1  UNL1        0.1765
     20 O         138.8734  140.8784  170.2567 O.2     1  UNL1       -0.1726
     21 O         141.6217  142.0019  169.8280 O.2     1  UNL1       -0.1726
     22 C         144.1457  142.7841  158.4583 C.2     1  UNL1        0.2455
     23 N         145.4099  142.8332  157.6524 N.am    1  UNL1       -0.3252
     24 O         143.1965  143.9453  158.4360 O.2     1  UNL1       -0.2703
     25 H         146.0329  142.0710  157.6671 H       1  UNL1        0.1453
     26 H         145.6165  143.6275  157.1088 H       1  UNL1        0.1453
     27 N         143.3169  143.1018  161.3241 N.pl3   1  UNL1       -0.3325
     28 H         142.5199  143.6559  161.1595 H       1  UNL1        0.1468
     29 C         144.4318  143.6268  162.1794 C.3     1  UNL1        0.0870
     30 C         144.1694  143.9977  163.6090 C.3     1  UNL1        0.0195
     31 C         143.7729  142.8137  165.8873 C.3     1  UNL1        0.0001
     32 C         144.6607  143.1125  164.7158 C.3     1  UNL1        0.0017
     33 C         143.4156  145.2538  163.9317 C.3     1  UNL1        0.0017
     34 C         141.9214  145.2855  163.8043 C.3     1  UNL1        0.0001
@<TRIPOS>BOND
     1    31    32    1
     2    32    30    1
     3    30    33    1
     4    33    34    1
     5    30    29    1
     6    29    27    1
     7    27     1    1
     8     1     2   ar
     9     2    22    1
    10    22    23   am
    11    22    24    2
    12     2     3   ar
    13     3     4   ar
    14     4     5   ar
    15     5     6   ar
    16     6     7   ar
    17     7     8   ar
    18     8    11    1
    19    11    12   ar
    20    12    13   ar
    21    13    14   ar
    22    14    17    1
    23    17    18    1
    24    18    19    1
    25    18    20    2
    26    18    21    2
    27    14    15   ar
    28    15    16   ar
    29     8     9   ar
    30     9    10   ar
    31    10     1   ar
    32    10     5   ar
    33    16    11   ar
    34    27    28    1
    35    23    25    1
    36    23    26    1
@<TRIPOS>MOLECULE
*****
 34 36 0 0 0
SMALL
GASTEIGER

@<TRIPOS>ATOM
      1 C         140.5457  141.5878  168.0694 C.ar    1  UNL1        0.0519
      2 C         140.3510  141.7154  169.5512 C.ar    1  UNL1        0.0853
      3 C         139.3734  140.8245  170.2586 C.ar    1  UNL1        0.1045
      4 N         138.5906  139.8059  169.4843 N.ar    1  UNL1       -0.2436
      5 C         138.7852  139.6783  168.0025 C.ar    1  UNL1        0.0825
      6 C         138.0024  138.6597  167.2281 C.ar    1  UNL1        0.0191
      7 C         138.1971  138.5321  165.7464 C.ar    1  UNL1        0.0016
      8 C         139.1747  139.4230  165.0389 C.ar    1  UNL1        0.0016
      9 C         139.9575  140.4416  165.8132 C.ar    1  UNL1        0.0028
     10 C         139.7628  140.5692  167.2950 C.ar    1  UNL1        0.0309
     11 C         139.3694  139.2954  163.5570 C.ar    1  UNL1        0.0192
     12 C         140.2578  140.2618  162.8313 C.ar    1  UNL1        0.0028
     13 C         140.4525  140.1341  161.3494 C.ar    1  UNL1        0.0165
     14 C         139.7587  139.0401  160.5933 C.ar    1  UNL1        0.0828
     15 N         138.8702  138.0736  161.3191 N.ar    1  UNL1       -0.2464
     16 C         138.6756  138.2013  162.8009 C.ar    1  UNL1        0.0985
     17 C         139.9533  138.9124  159.1115 C.3     1  UNL1        0.1962
     18 S         139.5859  140.0504  158.2061 S.O2    1  UNL1       -0.0025
     19 C         139.2186  141.1884  157.3005 C.3     1  UNL1        0.1765
     20 O         138.1368  139.8421  158.5323 O.2     1  UNL1       -0.1726
     21 O         141.0351  140.2587  157.8798 O.2     1  UNL1       -0.1726
     22 C         141.1339  142.7340  170.3255 C.2     1  UNL1        0.2455
     23 N         142.1546  142.2896  171.3309 N.am    1  UNL1       -0.3252
     24 O         140.8961  144.1969  170.0946 O.2     1  UNL1       -0.2703
     25 H         142.3107  141.3295  171.4825 H       1  UNL1        0.1453
     26 H         142.6685  142.9582  171.8391 H       1  UNL1        0.1453
     27 N         141.5233  142.4788  167.3619 N.pl3   1  UNL1       -0.3325
     28 H         141.2711  143.4024  167.1328 H       1  UNL1        0.1468
     29 C         142.8853  141.9624  167.0034 C.3     1  UNL1        0.0870
     30 C         143.2933  141.8594  165.5636 C.3     1  UNL1        0.0195
     31 C         143.3011  139.2621  165.6263 C.3     1  UNL1        0.0001
     32 C         143.7665  140.5481  165.0101 C.3     1  UNL1        0.0017
     33 C         143.2280  143.0679  164.6773 C.3     1  UNL1        0.0017
     34 C         141.9760  143.3661  163.9068 C.3     1  UNL1        0.0001
@<TRIPOS>BOND
     1    31    32    1
     2    32    30    1
     3    30    33    1
     4    33    34    1
     5    30    29    1
     6    29    27    1
     7    27     1    1
     8     1     2   ar
     9     2    22    1
    10    22    23   am
    11    22    24    2
    12     2     3   ar
    13     3     4   ar
    14     4     5   ar
    15     5     6   ar
    16     6     7   ar
    17     7     8   ar
    18     8    11    1
    19    11    12   ar
    20    12    13   ar
    21    13    14   ar
    22    14    17    1
    23    17    18    1
    24    18    19    1
    25    18    20    2
    26    18    21    2
    27    14    15   ar
    28    15    16   ar
    29     8     9   ar
    30     9    10   ar
    31    10     1   ar
    32    10     5   ar
    33    16    11   ar
    34    27    28    1
    35    23    25    1
    36    23    26    1
@<TRIPOS>MOLECULE
*****
 34 36 0 0 0
SMALL
GASTEIGER

@<TRIPOS>ATOM
      1 C         141.4610  140.4458  168.2047 C.ar    1  UNL1        0.0519
      2 C         141.2508  140.6109  169.6807 C.ar    1  UNL1        0.0853
      3 C         139.9276  140.2598  170.2937 C.ar    1  UNL1        0.1045
      4 N         138.8146  139.7437  169.4308 N.ar    1  UNL1       -0.2436
      5 C         139.0247  139.5785  167.9548 C.ar    1  UNL1        0.0825
      6 C         137.9117  139.0624  167.0918 C.ar    1  UNL1        0.0191
      7 C         138.1219  138.8972  165.6159 C.ar    1  UNL1        0.0016
      8 C         139.4451  139.2483  165.0028 C.ar    1  UNL1        0.0016
      9 C         140.5581  139.7645  165.8657 C.ar    1  UNL1        0.0028
     10 C         140.3479  139.9296  167.3417 C.ar    1  UNL1        0.0309
     11 C         139.6552  139.0832  163.5268 C.ar    1  UNL1        0.0192
     12 C         140.6541  139.9430  162.8106 C.ar    1  UNL1        0.0028
     13 C         140.8642  139.7779  161.3346 C.ar    1  UNL1        0.0165
     14 C         140.0755  138.7529  160.5748 C.ar    1  UNL1        0.0828
     15 N         139.0766  137.8930  161.2910 N.ar    1  UNL1       -0.2464
     16 C         138.8665  138.0582  162.7670 C.ar    1  UNL1        0.0985
     17 C         140.2856  138.5877  159.0988 C.3     1  UNL1        0.1962
     18 S         140.0094  139.7321  158.1693 S.O2    1  UNL1       -0.0025
     19 C         139.7331  140.8765  157.2397 C.3     1  UNL1        0.1765
     20 O         141.4810  139.8891  157.9252 O.2     1  UNL1       -0.1726
     21 O         138.5377  139.5751  158.4134 O.2     1  UNL1       -0.1726
     22 C         142.3639  141.1271  170.5437 C.2     1  UNL1        0.2455
     23 N         142.1153  142.2675  171.4858 N.am    1  UNL1       -0.3252
     24 O         143.7255  140.5029  170.4645 O.2     1  UNL1       -0.2703
     25 H         141.2216  142.6771  171.5378 H       1  UNL1        0.1453
     26 H         142.8458  142.6063  172.0522 H       1  UNL1        0.1453
     27 N         142.7842  140.7968  167.5917 N.pl3   1  UNL1       -0.3325
     28 H         143.5014  140.1236  167.5496 H       1  UNL1        0.1468
     29 C         143.0148  142.1737  167.0427 C.3     1  UNL1        0.0870
     30 C         143.0596  142.3918  165.5593 C.3     1  UNL1        0.0195
     31 C         144.0922  141.4306  163.3777 C.3     1  UNL1        0.0001
     32 C         144.2599  141.9550  164.7730 C.3     1  UNL1        0.0017
     33 C         141.9041  143.0469  164.8624 C.3     1  UNL1        0.0017
     34 C         140.6182  143.2795  165.5988 C.3     1  UNL1        0.0001
@<TRIPOS>BOND
     1    31    32    1
     2    32    30    1
     3    30    33    1
     4    33    34    1
     5    30    29    1
     6    29    27    1
     7    27     1    1
     8     1     2   ar
     9     2    22    1
    10    22    23   am
    11    22    24    2
    12     2     3   ar
    13     3     4   ar
    14     4     5   ar
    15     5     6   ar
    16     6     7   ar
    17     7     8   ar
    18     8    11    1
    19    11    12   ar
    20    12    13   ar
    21    13    14   ar
    22    14    17    1
    23    17    18    1
    24    18    19    1
    25    18    20    2
    26    18    21    2
    27    14    15   ar
    28    15    16   ar
    29     8     9   ar
    30     9    10   ar
    31    10     1   ar
    32    10     5   ar
    33    16    11   ar
    34    27    28    1
    35    23    25    1
    36    23    26    1
@<TRIPOS>MOLECULE
*****
 34 36 0 0 0
SMALL
GASTEIGER

@<TRIPOS>ATOM
      1 C         138.5539  141.6545  160.4272 C.ar    1  UNL1        0.0519
      2 C         138.5543  141.4750  158.9381 C.ar    1  UNL1        0.0853
      3 C         138.7775  140.1147  158.3467 C.ar    1  UNL1        0.1045
      4 N         139.0003  138.9339  159.2445 N.ar    1  UNL1       -0.2436
      5 C         139.0000  139.1134  160.7337 C.ar    1  UNL1        0.0825
      6 C         139.2228  137.9326  161.6315 C.ar    1  UNL1        0.0191
      7 C         139.2225  138.1122  163.1207 C.ar    1  UNL1        0.0016
      8 C         138.9993  139.4725  163.7121 C.ar    1  UNL1        0.0016
      9 C         138.7764  140.6533  162.8143 C.ar    1  UNL1        0.0028
     10 C         138.7768  140.4737  161.3251 C.ar    1  UNL1        0.0309
     11 C         138.9989  139.6520  165.2014 C.ar    1  UNL1        0.0192
     12 C         138.1051  138.8057  166.0586 C.ar    1  UNL1        0.0028
     13 C         138.1048  138.9852  167.5479 C.ar    1  UNL1        0.0165
     14 C         138.9983  140.0110  168.1798 C.ar    1  UNL1        0.0828
     15 N         139.8921  140.8573  167.3225 N.ar    1  UNL1       -0.2464
     16 C         139.8924  140.6778  165.8333 C.ar    1  UNL1        0.0985
     17 C         138.9980  140.1906  169.6690 C.3     1  UNL1        0.1962
     18 S         140.2210  140.7145  170.3615 S.O2    1  UNL1       -0.0025
     19 C         141.4441  141.2386  171.0540 C.3     1  UNL1        0.1765
     20 O         140.8948  139.3873  170.1758 O.2     1  UNL1       -0.1726
     21 O         139.5473  142.0417  170.5472 O.2     1  UNL1       -0.1726
     22 C         138.3314  142.6558  158.0402 C.2     1  UNL1        0.2455
     23 N         137.1470  142.6855  157.1203 N.am    1  UNL1       -0.3252
     24 O         139.2930  143.8068  158.0623 O.2     1  UNL1       -0.2703
     25 H         136.5159  141.9300  157.1058 H       1  UNL1        0.1453
     26 H         137.0007  143.4605  156.5310 H       1  UNL1        0.1453
     27 N         138.3307  143.0148  161.0186 N.pl3   1  UNL1       -0.3325
     28 H         137.4144  143.3477  161.1558 H       1  UNL1        0.1468
     29 C         139.5037  143.8681  161.4011 C.3     1  UNL1        0.0870
     30 C         139.7992  144.1320  162.8478 C.3     1  UNL1        0.0195
     31 C         137.9057  143.7933  164.5942 C.3     1  UNL1        0.0001
     32 C         138.7359  144.7033  163.7383 C.3     1  UNL1        0.0017
     33 C         141.1579  143.8246  163.4040 C.3     1  UNL1        0.0017
     34 C         142.0297  144.9351  163.9107 C.3     1  UNL1        0.0001
@<TRIPOS>BOND
     1    31    32    1
     2    32    30    1
     3    30    33    1
     4    33    34    1
     5    30    29    1
     6    29    27    1
     7    27     1    1
     8     1     2   ar
     9     2    22    1
    10    22    23   am
    11    22    24    2
    12     2     3   ar
    13     3     4   ar
    14     4     5   ar
    15     5     6   ar
    16     6     7   ar
    17     7     8   ar
    18     8    11    1
    19    11    12   ar
    20    12    13   ar
    21    13    14   ar
    22    14    17    1
    23    17    18    1
    24    18    19    1
    25    18    20    2
    26    18    21    2
    27    14    15   ar
    28    15    16   ar
    29     8     9   ar
    30     9    10   ar
    31    10     1   ar
    32    10     5   ar
    33    16    11   ar
    34    27    28    1
    35    23    25    1
    36    23    26    1
@<TRIPOS>MOLECULE
*****
 34 36 0 0 0
SMALL
GASTEIGER

@<TRIPOS>ATOM
      1 C         140.2537  141.5066  168.1386 C.ar    1  UNL1        0.0519
      2 C         139.9226  141.5858  169.5994 C.ar    1  UNL1        0.0853
      3 C         138.9314  140.6314  170.1966 C.ar    1  UNL1        0.1045
      4 N         138.2713  139.5978  169.3330 N.ar    1  UNL1       -0.2436
      5 C         138.6025  139.5185  167.8721 C.ar    1  UNL1        0.0825
      6 C         137.9424  138.4849  167.0085 C.ar    1  UNL1        0.0191
      7 C         138.2736  138.4056  165.5477 C.ar    1  UNL1        0.0016
      8 C         139.2647  139.3601  164.9505 C.ar    1  UNL1        0.0016
      9 C         139.9248  140.3937  165.8141 C.ar    1  UNL1        0.0028
     10 C         139.5936  140.4729  167.2749 C.ar    1  UNL1        0.0309
     11 C         139.5959  139.2808  163.4896 C.ar    1  UNL1        0.0192
     12 C         139.1042  138.1242  162.6708 C.ar    1  UNL1        0.0028
     13 C         139.4354  138.0449  161.2099 C.ar    1  UNL1        0.0165
     14 C         140.2581  139.1223  160.5679 C.ar    1  UNL1        0.0828
     15 N         140.7498  140.2790  161.3868 N.ar    1  UNL1       -0.2464
     16 C         140.4187  140.3582  162.8476 C.ar    1  UNL1        0.0985
     17 C         140.5893  139.0431  159.1071 C.3     1  UNL1        0.1962
     18 S         141.9701  139.3853  158.6315 S.O2    1  UNL1       -0.0025
     19 C         143.3509  139.7276  158.1558 C.3     1  UNL1        0.1765
     20 O         142.4991  138.1337  159.2666 O.2     1  UNL1       -0.1726
     21 O         141.4410  140.6370  157.9963 O.2     1  UNL1       -0.1726
     22 C         140.5826  142.6195  170.4632 C.2     1  UNL1        0.2455
     23 N         140.2701  144.0731  170.2648 N.am    1  UNL1       -0.3252
     24 O         141.5551  142.1996  171.5251 O.2     1  UNL1       -0.2703
     25 H         139.6318  144.3488  169.5678 H       1  UNL1        0.1453
     26 H         140.7033  144.7516  170.8317 H       1  UNL1        0.1453
     27 N         141.2449  142.4610  167.5414 N.pl3   1  UNL1       -0.3325
     28 H         140.9546  143.3574  167.2558 H       1  UNL1        0.1468
     29 C         142.6783  142.0497  167.3794 C.3     1  UNL1        0.0870
     30 C         143.1893  141.6252  166.0345 C.3     1  UNL1        0.0195
     31 C         143.1010  139.1396  166.7855 C.3     1  UNL1        0.0001
     32 C         143.3951  140.1698  165.7356 C.3     1  UNL1        0.0017
     33 C         143.4944  142.6562  164.9885 C.3     1  UNL1        0.0017
     34 C         142.3774  143.3006  164.2223 C.3     1  UNL1        0.0001
@<TRIPOS>BOND
     1    31    32    1
     2    32    30    1
     3    30    33    1
     4    33    34    1
     5    30    29    1
     6    29    27    1
     7    27     1    1
     8     1     2   ar
     9     2    22    1
    10    22    23   am
    11    22    24    2
    12     2     3   ar
    13     3     4   ar
    14     4     5   ar
    15     5     6   ar
    16     6     7   ar
    17     7     8   ar
    18     8    11    1
    19    11    12   ar
    20    12    13   ar
    21    13    14   ar
    22    14    17    1
    23    17    18    1
    24    18    19    1
    25    18    20    2
    26    18    21    2
    27    14    15   ar
    28    15    16   ar
    29     8     9   ar
    30     9    10   ar
    31    10     1   ar
    32    10     5   ar
    33    16    11   ar
    34    27    28    1
    35    23    25    1
    36    23    26    1
@<TRIPOS>MOLECULE
*****
 34 36 0 0 0
SMALL
GASTEIGER

@<TRIPOS>ATOM
      1 C         140.6125  140.1912  167.3374 C.ar    1  UNL1        0.0519
      2 C         140.6267  140.0465  168.8303 C.ar    1  UNL1        0.0853
      3 C         141.8073  139.4209  169.5120 C.ar    1  UNL1        0.1045
      4 N         142.9737  138.9400  168.7008 N.ar    1  UNL1       -0.2436
      5 C         142.9596  139.0847  167.2078 C.ar    1  UNL1        0.0825
      6 C         144.1260  138.6038  166.3966 C.ar    1  UNL1        0.0191
      7 C         144.1118  138.7485  164.9037 C.ar    1  UNL1        0.0016
      8 C         142.9312  139.3741  164.2220 C.ar    1  UNL1        0.0016
      9 C         141.7648  139.8550  165.0332 C.ar    1  UNL1        0.0028
     10 C         141.7790  139.7103  166.5261 C.ar    1  UNL1        0.0309
     11 C         142.9171  139.5188  162.7290 C.ar    1  UNL1        0.0192
     12 C         141.7822  140.2316  162.0553 C.ar    1  UNL1        0.0028
     13 C         141.7681  140.3763  160.5623 C.ar    1  UNL1        0.0165
     14 C         142.8889  139.8082  159.7431 C.ar    1  UNL1        0.0828
     15 N         144.0238  139.0954  160.4169 N.ar    1  UNL1       -0.2464
     16 C         144.0379  138.9507  161.9098 C.ar    1  UNL1        0.0985
     17 C         142.8748  139.9529  158.2502 C.3     1  UNL1        0.1962
     18 S         144.0776  140.4968  157.5381 S.O2    1  UNL1       -0.0025
     19 C         145.2806  141.0407  156.8258 C.3     1  UNL1        0.1765
     20 O         143.9119  141.8033  158.2559 O.2     1  UNL1       -0.1726
     21 O         144.2434  139.1902  156.8202 O.2     1  UNL1       -0.1726
     22 C         139.4602  140.5274  169.6416 C.2     1  UNL1        0.2455
     23 N         139.5285  141.8526  170.3410 N.am    1  UNL1       -0.3252
     24 O         138.2254  139.6832  169.7534 O.2     1  UNL1       -0.2703
     25 H         140.3390  142.4067  170.2676 H       1  UNL1        0.1453
     26 H         138.7630  142.1683  170.8734 H       1  UNL1        0.1453
     27 N         139.4319  140.8169  166.6557 N.pl3   1  UNL1       -0.3325
     28 H         139.3820  141.7951  166.5567 H       1  UNL1        0.1468
     29 C         138.3272  139.9520  166.1247 C.3     1  UNL1        0.0870
     30 C         138.3905  139.4336  164.7185 C.3     1  UNL1        0.0195
     31 C         138.6369  141.6710  163.4211 C.3     1  UNL1        0.0001
     32 C         138.0009  140.3211  163.5738 C.3     1  UNL1        0.0017
     33 C         138.8436  138.0277  164.4571 C.3     1  UNL1        0.0017
     34 C         139.3950  137.6552  163.1128 C.3     1  UNL1        0.0001
@<TRIPOS>BOND
     1    31    32    1
     2    32    30    1
     3    30    33    1
     4    33    34    1
     5    30    29    1
     6    29    27    1
     7    27     1    1
     8     1     2   ar
     9     2    22    1
    10    22    23   am
    11    22    24    2
    12     2     3   ar
    13     3     4   ar
    14     4     5   ar
    15     5     6   ar
    16     6     7   ar
    17     7     8   ar
    18     8    11    1
    19    11    12   ar
    20    12    13   ar
    21    13    14   ar
    22    14    17    1
    23    17    18    1
    24    18    19    1
    25    18    20    2
    26    18    21    2
    27    14    15   ar
    28    15    16   ar
    29     8     9   ar
    30     9    10   ar
    31    10     1   ar
    32    10     5   ar
    33    16    11   ar
    34    27    28    1
    35    23    25    1
    36    23    26    1
@<TRIPOS>MOLECULE
*****
 34 36 0 0 0
SMALL
GASTEIGER

@<TRIPOS>ATOM
      1 C         141.6847  143.3255  160.9521 C.ar    1  UNL1        0.0519
      2 C         141.5046  144.0963  159.6780 C.ar    1  UNL1        0.0853
      3 C         140.3862  145.0880  159.5531 C.ar    1  UNL1        0.1045
      4 N         139.4480  145.3091  160.7023 N.ar    1  UNL1       -0.2436
      5 C         139.6280  144.5384  161.9765 C.ar    1  UNL1        0.0825
      6 C         138.6898  144.7595  163.1258 C.ar    1  UNL1        0.0191
      7 C         138.8699  143.9888  164.3999 C.ar    1  UNL1        0.0016
      8 C         139.9883  142.9970  164.5248 C.ar    1  UNL1        0.0016
      9 C         140.9265  142.7759  163.3756 C.ar    1  UNL1        0.0028
     10 C         140.7464  143.5466  162.1015 C.ar    1  UNL1        0.0309
     11 C         140.1683  142.2263  165.7991 C.ar    1  UNL1        0.0192
     12 C         140.4929  142.9486  167.0730 C.ar    1  UNL1        0.0028
     13 C         140.6730  142.1778  168.3472 C.ar    1  UNL1        0.0165
     14 C         140.5285  140.6848  168.3475 C.ar    1  UNL1        0.0828
     15 N         140.2039  139.9625  167.0735 N.ar    1  UNL1       -0.2464
     16 C         140.0239  140.7332  165.7993 C.ar    1  UNL1        0.0985
     17 C         140.7086  139.9141  169.6216 C.3     1  UNL1        0.1962
     18 S         142.0344  139.9238  170.3230 S.O2    1  UNL1       -0.0025
     19 C         143.3604  139.9334  171.0243 C.3     1  UNL1        0.1765
     20 O         141.4523  140.7757  171.4117 O.2     1  UNL1       -0.1726
     21 O         142.6165  139.0718  169.2343 O.2     1  UNL1       -0.1726
     22 C         142.4428  143.8752  158.5287 C.2     1  UNL1        0.2455
     23 N         142.9050  145.0392  157.7032 N.am    1  UNL1       -0.3252
     24 O         142.9189  142.4901  158.2049 O.2     1  UNL1       -0.2703
     25 H         142.5925  145.9483  157.9158 H       1  UNL1        0.1453
     26 H         143.5208  144.8942  156.9489 H       1  UNL1        0.1453
     27 N         142.8030  142.3337  161.0771 N.pl3   1  UNL1       -0.3325
     28 H         142.6781  141.4089  160.7637 H       1  UNL1        0.1468
     29 C         144.1118  142.7511  161.6795 C.3     1  UNL1        0.0870
     30 C         144.5789  142.1300  162.9625 C.3     1  UNL1        0.0195
     31 C         144.9016  139.9070  164.2678 C.3     1  UNL1        0.0001
     32 C         144.9928  140.6885  162.9908 C.3     1  UNL1        0.0017
     33 C         144.6322  142.9504  164.2172 C.3     1  UNL1        0.0017
     34 C         143.9228  144.2705  164.2807 C.3     1  UNL1        0.0001
@<TRIPOS>BOND
     1    31    32    1
     2    32    30    1
     3    30    33    1
     4    33    34    1
     5    30    29    1
     6    29    27    1
     7    27     1    1
     8     1     2   ar
     9     2    22    1
    10    22    23   am
    11    22    24    2
    12     2     3   ar
    13     3     4   ar
    14     4     5   ar
    15     5     6   ar
    16     6     7   ar
    17     7     8   ar
    18     8    11    1
    19    11    12   ar
    20    12    13   ar
    21    13    14   ar
    22    14    17    1
    23    17    18    1
    24    18    19    1
    25    18    20    2
    26    18    21    2
    27    14    15   ar
    28    15    16   ar
    29     8     9   ar
    30     9    10   ar
    31    10     1   ar
    32    10     5   ar
    33    16    11   ar
    34    27    28    1
    35    23    25    1
    36    23    26    1
