@<TRIPOS>MOLECULE
*****
 24 27 0 0 0
SMALL
GASTEIGER

@<TRIPOS>ATOM
      1 O         140.7034  142.7569  165.4613 O.2     1  UNL1       -0.2520
      2 C         140.0712  142.7472  164.1011 C.2     1  UNL1        0.3111
      3 N         140.0201  143.9014  163.1444 N.am    1  UNL1       -0.2606
      4 C         139.2964  143.4492  161.9108 C.3     1  UNL1        0.1169
      5 C         138.9002  142.0156  162.1051 C.3     1  UNL1        0.1212
      6 N         139.3791  141.5818  163.4588 N.am    1  UNL1       -0.2413
      7 C         139.1976  140.2212  164.0639 C.ar    1  UNL1        0.0562
      8 C         139.7841  139.0164  163.3900 C.ar    1  UNL1        0.0150
      9 C         139.6026  137.6559  163.9952 C.ar    1  UNL1        0.0021
     10 C         138.8346  137.5003  165.2742 C.ar    1  UNL1        0.0115
     11 C         138.2481  138.7053  165.9481 C.ar    1  UNL1        0.0589
     12 CL        137.4801  138.5497  167.2271 Cl      1  UNL1       -0.0822
     13 C         138.4296  140.0657  165.3430 C.ar    1  UNL1        0.0263
     14 C         140.5923  145.2678  163.3799 C.3     1  UNL1        0.1123
     15 C         142.0589  145.4306  163.6490 C.3     1  UNL1        0.0939
     16 N         144.5668  142.8509  163.1879 N.3     1  UNL1       -0.2712
     17 C         144.6433  142.8589  164.5452 C.3     1  UNL1        0.0721
     18 C         144.6620  142.8576  164.8270 C.3     1  UNL1        0.0160
     19 C         143.7102  143.7814  164.1267 C.3     1  UNL1        0.0014
     20 C         143.6237  143.7748  162.6292 C.3     1  UNL1        0.0014
     21 C         144.4891  142.8443  161.8321 C.3     1  UNL1        0.0160
     22 C         145.4409  141.9205  162.5325 C.3     1  UNL1        0.0014
     23 C         145.5274  141.9272  164.0299 C.3     1  UNL1        0.0014
     24 C         144.5727  142.8537  163.3264 C.3     1  UNL1        0.0721
@<TRIPOS>BOND
     1     1     2    2
     2     2     3   am
     3     3    14    1
     4    14    15    1
     5    15    16    1
     6    16    17    1
     7    18    17    1
     8    18    19    1
     9    19    20    1
    10    21    20    1
    11    21    22    1
    12    22    23    1
    13    21    24    1
    14     3     4    1
    15     4     5    1
    16     5     6    1
    17     6     7    1
    18     7     8   ar
    19     8     9   ar
    20     9    10   ar
    21    10    11   ar
    22    11    12    1
    23    11    13   ar
    24     6     2   am
    25    13     7   ar
    26    24    16    1
    27    23    18    1
@<TRIPOS>MOLECULE
*****
 24 27 0 0 0
SMALL
GASTEIGER

@<TRIPOS>ATOM
      1 O         139.2617  141.1445  164.9405 O.2     1  UNL1       -0.2520
      2 C         139.9453  140.9279  166.2579 C.2     1  UNL1        0.3111
      3 N         139.4644  140.0372  167.3649 N.am    1  UNL1       -0.2606
      4 C         140.4518  140.1227  168.4908 C.3     1  UNL1        0.1169
      5 C         141.5430  141.0663  168.0797 C.3     1  UNL1        0.1212
      6 N         141.2299  141.5639  166.6998 N.am    1  UNL1       -0.2413
      7 C         142.0565  142.5284  165.9017 C.ar    1  UNL1        0.0562
      8 C         143.5506  142.5239  166.0338 C.ar    1  UNL1        0.0150
      9 C         144.3770  143.4882  165.2358 C.ar    1  UNL1        0.0021
     10 C         143.7094  144.4571  164.3055 C.ar    1  UNL1        0.0115
     11 C         142.2152  144.4617  164.1734 C.ar    1  UNL1        0.0589
     12 CL        141.5475  145.4306  163.2431 Cl      1  UNL1       -0.0822
     13 C         141.3888  143.4973  164.9714 C.ar    1  UNL1        0.0263
     14 C         138.2155  139.2067  167.3488 C.3     1  UNL1        0.1123
     15 C         138.0724  138.0865  166.3615 C.3     1  UNL1        0.0939
     16 N         139.9419  137.7754  163.2688 N.3     1  UNL1       -0.2712
     17 C         140.9410  137.3125  164.0662 C.3     1  UNL1        0.0721
     18 C         141.1508  137.2159  164.2286 C.3     1  UNL1        0.0160
     19 C         139.8400  137.6234  164.8332 C.3     1  UNL1        0.0014
     20 C         138.7360  138.1344  163.9558 C.3     1  UNL1        0.0014
     21 C         138.9428  138.2380  162.4737 C.3     1  UNL1        0.0160
     22 C         140.2537  137.8305  161.8691 C.3     1  UNL1        0.0014
     23 C         141.3577  137.3195  162.7466 C.3     1  UNL1        0.0014
     24 C         140.0421  137.7285  163.3524 C.3     1  UNL1        0.0721
@<TRIPOS>BOND
     1     1     2    2
     2     2     3   am
     3     3    14    1
     4    14    15    1
     5    15    16    1
     6    16    17    1
     7    18    17    1
     8    18    19    1
     9    19    20    1
    10    21    20    1
    11    21    22    1
    12    22    23    1
    13    21    24    1
    14     3     4    1
    15     4     5    1
    16     5     6    1
    17     6     7    1
    18     7     8   ar
    19     8     9   ar
    20     9    10   ar
    21    10    11   ar
    22    11    12    1
    23    11    13   ar
    24     6     2   am
    25    13     7   ar
    26    24    16    1
    27    23    18    1
@<TRIPOS>MOLECULE
*****
 24 27 0 0 0
SMALL
GASTEIGER

@<TRIPOS>ATOM
      1 O         141.6447  141.9669  162.8965 O.2     1  UNL1       -0.2520
      2 C         142.3045  141.9396  164.2433 C.2     1  UNL1        0.3111
      3 N         143.1922  143.0066  164.8121 N.am    1  UNL1       -0.2606
      4 C         143.6288  142.5668  166.1781 C.3     1  UNL1        0.1169
      5 C         143.0108  141.2281  166.4536 C.3     1  UNL1        0.1212
      6 N         142.1924  140.8405  165.2579 N.am    1  UNL1       -0.2413
      7 C         141.4008  139.5756  165.1037 C.ar    1  UNL1        0.0562
      8 C         141.9445  138.4462  164.2799 C.ar    1  UNL1        0.0150
      9 C         141.1529  137.1815  164.1258 C.ar    1  UNL1        0.0021
     10 C         139.8176  137.0461  164.7955 C.ar    1  UNL1        0.0115
     11 C         139.2739  138.1755  165.6194 C.ar    1  UNL1        0.0589
     12 CL        137.9385  138.0402  166.2891 Cl      1  UNL1       -0.0822
     13 C         140.0655  139.4403  165.7735 C.ar    1  UNL1        0.0263
     14 C         143.5761  144.2882  164.1339 C.3     1  UNL1        0.1123
     15 C         142.5205  145.2908  163.7725 C.3     1  UNL1        0.0939
     16 N         138.9573  144.6227  163.6538 N.3     1  UNL1       -0.2712
     17 C         139.0410  144.6154  165.0107 C.3     1  UNL1        0.0721
     18 C         139.0545  144.6132  165.2928 C.3     1  UNL1        0.0160
     19 C         140.2840  144.8584  164.4694 C.3     1  UNL1        0.0014
     20 C         140.1945  144.8669  162.9722 C.3     1  UNL1        0.0014
     21 C         138.8755  144.6303  162.2983 C.3     1  UNL1        0.0160
     22 C         137.6459  144.3851  163.1217 C.3     1  UNL1        0.0014
     23 C         137.7354  144.3765  164.6189 C.3     1  UNL1        0.0014
     24 C         138.9686  144.6225  163.7920 C.3     1  UNL1        0.0721
@<TRIPOS>BOND
     1     1     2    2
     2     2     3   am
     3     3    14    1
     4    14    15    1
     5    15    16    1
     6    16    17    1
     7    18    17    1
     8    18    19    1
     9    19    20    1
    10    21    20    1
    11    21    22    1
    12    22    23    1
    13    21    24    1
    14     3     4    1
    15     4     5    1
    16     5     6    1
    17     6     7    1
    18     7     8   ar
    19     8     9   ar
    20     9    10   ar
    21    10    11   ar
    22    11    12    1
    23    11    13   ar
    24     6     2   am
    25    13     7   ar
    26    24    16    1
    27    23    18    1
@<TRIPOS>MOLECULE
*****
 24 27 0 0 0
SMALL
GASTEIGER

@<TRIPOS>ATOM
      1 O         138.1507  140.8040  164.2898 O.2     1  UNL1       -0.2520
      2 C         138.9452  140.9006  165.5584 C.2     1  UNL1        0.3111
      3 N         138.8846  139.9434  166.7117 N.am    1  UNL1       -0.2606
      4 C         139.8418  140.4226  167.7625 C.3     1  UNL1        0.1169
      5 C         140.4939  141.6759  167.2586 C.3     1  UNL1        0.1212
      6 N         139.9398  141.9713  165.8964 N.am    1  UNL1       -0.2413
      7 C         140.3146  143.1335  165.0252 C.ar    1  UNL1        0.0562
      8 C         139.2449  143.9476  164.3597 C.ar    1  UNL1        0.0150
      9 C         139.6197  145.1097  163.4885 C.ar    1  UNL1        0.0021
     10 C         141.0641  145.4578  163.2828 C.ar    1  UNL1        0.0115
     11 C         142.1338  144.6436  163.9483 C.ar    1  UNL1        0.0589
     12 CL        143.5783  144.9916  163.7426 Cl      1  UNL1       -0.0822
     13 C         141.7591  143.4815  164.8195 C.ar    1  UNL1        0.0263
     14 C         138.0189  138.7216  166.7989 C.3     1  UNL1        0.1123
     15 C         138.2406  137.5766  165.8557 C.3     1  UNL1        0.0939
     16 N         140.1821  137.7356  162.7959 N.3     1  UNL1       -0.2712
     17 C         141.2433  137.4734  163.6042 C.3     1  UNL1        0.0721
     18 C         141.4662  137.4190  163.7690 C.3     1  UNL1        0.0160
     19 C         140.0897  137.5291  164.3547 C.3     1  UNL1        0.0014
     20 C         138.9171  137.8183  163.4653 C.3     1  UNL1        0.0014
     21 C         139.1209  137.9974  161.9900 C.3     1  UNL1        0.0160
     22 C         140.4974  137.8873  161.4042 C.3     1  UNL1        0.0014
     23 C         141.6700  137.5981  162.2937 C.3     1  UNL1        0.0014
     24 C         140.2886  137.7088  162.8806 C.3     1  UNL1        0.0721
@<TRIPOS>BOND
     1     1     2    2
     2     2     3   am
     3     3    14    1
     4    14    15    1
     5    15    16    1
     6    16    17    1
     7    18    17    1
     8    18    19    1
     9    19    20    1
    10    21    20    1
    11    21    22    1
    12    22    23    1
    13    21    24    1
    14     3     4    1
    15     4     5    1
    16     5     6    1
    17     6     7    1
    18     7     8   ar
    19     8     9   ar
    20     9    10   ar
    21    10    11   ar
    22    11    12    1
    23    11    13   ar
    24     6     2   am
    25    13     7   ar
    26    24    16    1
    27    23    18    1
@<TRIPOS>MOLECULE
*****
 24 27 0 0 0
SMALL
GASTEIGER

@<TRIPOS>ATOM
      1 O         142.4837  137.8568  165.6419 O.2     1  UNL1       -0.2520
      2 C         141.3447  138.6186  165.0318 C.2     1  UNL1        0.3111
      3 N         140.8730  138.5124  163.6118 N.am    1  UNL1       -0.2606
      4 C         139.7142  139.4486  163.4370 C.3     1  UNL1        0.1169
      5 C         139.4696  140.1334  164.7490 C.3     1  UNL1        0.1212
      6 N         140.4773  139.6205  165.7345 N.am    1  UNL1       -0.2413
      7 C         140.5966  140.0364  167.1709 C.ar    1  UNL1        0.0562
      8 C         139.4053  139.9501  168.0782 C.ar    1  UNL1        0.0150
      9 C         139.5247  140.3660  169.5144 C.ar    1  UNL1        0.0021
     10 C         140.8353  140.8683  170.0433 C.ar    1  UNL1        0.0115
     11 C         142.0267  140.9546  169.1360 C.ar    1  UNL1        0.0589
     12 CL        143.3374  141.4568  169.6649 Cl      1  UNL1       -0.0822
     13 C         141.9073  140.5386  167.6998 C.ar    1  UNL1        0.0263
     14 C         141.4576  137.6257  162.5526 C.3     1  UNL1        0.1123
     15 C         142.8171  137.9224  161.9925 C.3     1  UNL1        0.0939
     16 N         144.7927  140.8681  162.7522 N.3     1  UNL1       -0.2712
     17 C         145.1064  140.2077  163.8984 C.3     1  UNL1        0.0721
     18 C         145.1739  140.0736  164.1376 C.3     1  UNL1        0.0160
     19 C         144.2623  139.4345  163.1325 C.3     1  UNL1        0.0014
     20 C         143.9144  140.1608  161.8670 C.3     1  UNL1        0.0014
     21 C         144.4782  141.5262  161.6067 C.3     1  UNL1        0.0160
     22 C         145.3898  142.1654  162.6119 C.3     1  UNL1        0.0014
     23 C         145.7377  141.4390  163.8773 C.3     1  UNL1        0.0014
     24 C         144.8231  140.7985  162.8683 C.3     1  UNL1        0.0721
@<TRIPOS>BOND
     1     1     2    2
     2     2     3   am
     3     3    14    1
     4    14    15    1
     5    15    16    1
     6    16    17    1
     7    18    17    1
     8    18    19    1
     9    19    20    1
    10    21    20    1
    11    21    22    1
    12    22    23    1
    13    21    24    1
    14     3     4    1
    15     4     5    1
    16     5     6    1
    17     6     7    1
    18     7     8   ar
    19     8     9   ar
    20     9    10   ar
    21    10    11   ar
    22    11    12    1
    23    11    13   ar
    24     6     2   am
    25    13     7   ar
    26    24    16    1
    27    23    18    1
@<TRIPOS>MOLECULE
*****
 24 27 0 0 0
SMALL
GASTEIGER

@<TRIPOS>ATOM
      1 O         139.7216  143.6118  166.0837 O.2     1  UNL1       -0.2520
      2 C         139.2189  142.4121  165.3367 C.2     1  UNL1        0.3111
      3 N         138.3292  142.4345  164.1291 N.am    1  UNL1       -0.2606
      4 C         138.0780  141.0157  163.7122 C.3     1  UNL1        0.1169
      5 C         138.8124  140.1165  164.6620 C.3     1  UNL1        0.1212
      6 N         139.5174  140.9795  165.6659 N.am    1  UNL1       -0.2413
      7 C         140.3713  140.4950  166.8002 C.ar    1  UNL1        0.0562
      8 C         141.7678  140.0158  166.5361 C.ar    1  UNL1        0.0150
      9 C         142.6215  139.5312  167.6703 C.ar    1  UNL1        0.0021
     10 C         142.0787  139.5259  169.0685 C.ar    1  UNL1        0.0115
     11 C         140.6821  140.0051  169.3326 C.ar    1  UNL1        0.0589
     12 CL        140.1391  139.9998  170.7309 Cl      1  UNL1       -0.0822
     13 C         139.8283  140.4897  168.1984 C.ar    1  UNL1        0.0263
     14 C         137.7862  143.6604  163.4567 C.3     1  UNL1        0.1123
     15 C         138.7256  144.6887  162.9000 C.3     1  UNL1        0.0939
     16 N         142.3238  144.3102  162.6424 N.3     1  UNL1       -0.2712
     17 C         142.3658  145.2277  163.6447 C.3     1  UNL1        0.0721
     18 C         142.3785  145.4181  163.8529 C.3     1  UNL1        0.0160
     19 C         141.0561  144.9688  163.3059 C.3     1  UNL1        0.0014
     20 C         141.0069  143.9566  162.2000 C.3     1  UNL1        0.0014
     21 C         142.2800  143.3938  161.6411 C.3     1  UNL1        0.0160
     22 C         143.6024  143.8432  162.1882 C.3     1  UNL1        0.0014
     23 C         143.6516  144.8553  163.2941 C.3     1  UNL1        0.0014
     24 C         142.3253  144.4039  162.7446 C.3     1  UNL1        0.0721
@<TRIPOS>BOND
     1     1     2    2
     2     2     3   am
     3     3    14    1
     4    14    15    1
     5    15    16    1
     6    16    17    1
     7    18    17    1
     8    18    19    1
     9    19    20    1
    10    21    20    1
    11    21    22    1
    12    22    23    1
    13    21    24    1
    14     3     4    1
    15     4     5    1
    16     5     6    1
    17     6     7    1
    18     7     8   ar
    19     8     9   ar
    20     9    10   ar
    21    10    11   ar
    22    11    12    1
    23    11    13   ar
    24     6     2   am
    25    13     7   ar
    26    24    16    1
    27    23    18    1
@<TRIPOS>MOLECULE
*****
 24 27 0 0 0
SMALL
GASTEIGER

@<TRIPOS>ATOM
      1 O         143.3023  139.9594  166.9021 O.2     1  UNL1       -0.2520
      2 C         142.0993  139.8860  166.0091 C.2     1  UNL1        0.3111
      3 N         142.0846  139.4090  164.5871 N.am    1  UNL1       -0.2606
      4 C         140.6760  139.5050  164.0805 C.3     1  UNL1        0.1169
      5 C         139.8201  140.0412  165.1895 C.3     1  UNL1        0.1212
      6 N         140.6998  140.2767  166.3814 N.am    1  UNL1       -0.2413
      7 C         140.2574  140.8094  167.7122 C.ar    1  UNL1        0.0562
      8 C         139.4439  139.9482  168.6320 C.ar    1  UNL1        0.0150
      9 C         139.0016  140.4809  169.9626 C.ar    1  UNL1        0.0021
     10 C         139.3729  141.8749  170.3734 C.ar    1  UNL1        0.0115
     11 C         140.1865  142.7362  169.4535 C.ar    1  UNL1        0.0589
     12 CL        140.5578  144.1302  169.8642 Cl      1  UNL1       -0.0822
     13 C         140.6288  142.2035  168.1229 C.ar    1  UNL1        0.0263
     14 C         143.2703  138.9217  163.8083 C.3     1  UNL1        0.1123
     15 C         144.3560  139.8800  163.4172 C.3     1  UNL1        0.0939
     16 N         144.1010  143.4957  163.5544 N.3     1  UNL1       -0.2712
     17 C         144.3333  143.3358  164.8843 C.3     1  UNL1        0.0721
     18 C         144.3814  143.3066  165.1611 C.3     1  UNL1        0.0160
     19 C         144.3249  142.1067  164.2628 C.3     1  UNL1        0.0014
     20 C         144.0688  142.2801  162.7950 C.3     1  UNL1        0.0014
     21 C         143.8691  143.6534  162.2256 C.3     1  UNL1        0.0160
     22 C         143.9256  144.8533  163.1239 C.3     1  UNL1        0.0014
     23 C         144.1817  144.6799  164.5916 C.3     1  UNL1        0.0014
     24 C         144.1249  143.4766  163.6896 C.3     1  UNL1        0.0721
@<TRIPOS>BOND
     1     1     2    2
     2     2     3   am
     3     3    14    1
     4    14    15    1
     5    15    16    1
     6    16    17    1
     7    18    17    1
     8    18    19    1
     9    19    20    1
    10    21    20    1
    11    21    22    1
    12    22    23    1
    13    21    24    1
    14     3     4    1
    15     4     5    1
    16     5     6    1
    17     6     7    1
    18     7     8   ar
    19     8     9   ar
    20     9    10   ar
    21    10    11   ar
    22    11    12    1
    23    11    13   ar
    24     6     2   am
    25    13     7   ar
    26    24    16    1
    27    23    18    1
@<TRIPOS>MOLECULE
*****
 24 27 0 0 0
SMALL
GASTEIGER

@<TRIPOS>ATOM
      1 O         141.0639  140.5670  164.7478 O.2     1  UNL1       -0.2520
      2 C         140.0140  139.9311  165.6099 C.2     1  UNL1        0.3111
      3 N         138.9285  139.0080  165.1411 N.am    1  UNL1       -0.2606
      4 C         138.1089  138.6130  166.3337 C.3     1  UNL1        0.1169
      5 C         138.6877  139.2920  167.5394 C.3     1  UNL1        0.1212
      6 N         139.8651  140.1066  167.0921 N.am    1  UNL1       -0.2413
      7 C         140.7401  140.9490  167.9726 C.ar    1  UNL1        0.0562
      8 C         142.1506  140.5242  168.2550 C.ar    1  UNL1        0.0150
      9 C         143.0255  141.3665  169.1354 C.ar    1  UNL1        0.0021
     10 C         142.4898  142.6336  169.7333 C.ar    1  UNL1        0.0115
     11 C         141.0792  143.0583  169.4509 C.ar    1  UNL1        0.0589
     12 CL        140.5434  144.3253  170.0488 Cl      1  UNL1       -0.0822
     13 C         140.2043  142.2160  168.5705 C.ar    1  UNL1        0.0263
     14 C         138.7025  138.5587  163.7280 C.3     1  UNL1        0.1123
     15 C         138.1041  139.5027  162.7276 C.3     1  UNL1        0.0939
     16 N         138.3076  143.1207  162.8868 N.3     1  UNL1       -0.2712
     17 C         137.6993  142.9762  164.0939 C.3     1  UNL1        0.0721
     18 C         137.5730  142.9502  164.3452 C.3     1  UNL1        0.0160
     19 C         137.8880  141.7397  163.5173 C.3     1  UNL1        0.0014
     20 C         138.5591  141.8962  162.1851 C.3     1  UNL1        0.0014
     21 C         138.9152  143.2632  161.6806 C.3     1  UNL1        0.0160
     22 C         138.6002  144.4737  162.5085 C.3     1  UNL1        0.0014
     23 C         137.9291  144.3172  163.8408 C.3     1  UNL1        0.0014
     24 C         138.2455  143.1032  163.0095 C.3     1  UNL1        0.0721
@<TRIPOS>BOND
     1     1     2    2
     2     2     3   am
     3     3    14    1
     4    14    15    1
     5    15    16    1
     6    16    17    1
     7    18    17    1
     8    18    19    1
     9    19    20    1
    10    21    20    1
    11    21    22    1
    12    22    23    1
    13    21    24    1
    14     3     4    1
    15     4     5    1
    16     5     6    1
    17     6     7    1
    18     7     8   ar
    19     8     9   ar
    20     9    10   ar
    21    10    11   ar
    22    11    12    1
    23    11    13   ar
    24     6     2   am
    25    13     7   ar
    26    24    16    1
    27    23    18    1
@<TRIPOS>MOLECULE
*****
 24 27 0 0 0
SMALL
GASTEIGER

@<TRIPOS>ATOM
      1 O         141.7808  142.4368  165.3251 O.2     1  UNL1       -0.2520
      2 C         142.6011  142.2311  164.0862 C.2     1  UNL1        0.3111
      3 N         143.4152  143.2772  163.3840 N.am    1  UNL1       -0.2606
      4 C         144.0686  142.6358  162.1959 C.3     1  UNL1        0.1169
      5 C         143.6583  141.1934  162.1637 C.3     1  UNL1        0.1212
      6 N         142.7514  140.9433  163.3320 N.am    1  UNL1       -0.2413
      7 C         142.1077  139.6349  163.6843 C.ar    1  UNL1        0.0562
      8 C         142.7809  138.7033  164.6480 C.ar    1  UNL1        0.0150
      9 C         142.1372  137.3950  165.0002 C.ar    1  UNL1        0.0021
     10 C         140.8203  137.0184  164.3887 C.ar    1  UNL1        0.0115
     11 C         140.1471  137.9501  163.4250 C.ar    1  UNL1        0.0589
     12 CL        138.8302  137.5735  162.8135 Cl      1  UNL1       -0.0822
     13 C         140.7908  139.2583  163.0728 C.ar    1  UNL1        0.0263
     14 C         143.5519  144.7126  163.7974 C.3     1  UNL1        0.1123
     15 C         142.3477  145.6068  163.8119 C.3     1  UNL1        0.0939
     16 N         138.9043  144.4771  163.6569 N.3     1  UNL1       -0.2712
     17 C         138.8935  144.7292  164.9927 C.3     1  UNL1        0.0721
     18 C         138.8874  144.7804  165.2704 C.3     1  UNL1        0.0160
     19 C         140.1342  145.0262  164.4736 C.3     1  UNL1        0.0014
     20 C         140.1490  144.7490  162.9995 C.3     1  UNL1        0.0014
     21 C         138.9170  144.2259  162.3223 C.3     1  UNL1        0.0160
     22 C         137.6702  143.9801  163.1192 C.3     1  UNL1        0.0014
     23 C         137.6554  144.2573  164.5932 C.3     1  UNL1        0.0014
     24 C         138.9059  144.5037  163.7930 C.3     1  UNL1        0.0721
@<TRIPOS>BOND
     1     1     2    2
     2     2     3   am
     3     3    14    1
     4    14    15    1
     5    15    16    1
     6    16    17    1
     7    18    17    1
     8    18    19    1
     9    19    20    1
    10    21    20    1
    11    21    22    1
    12    22    23    1
    13    21    24    1
    14     3     4    1
    15     4     5    1
    16     5     6    1
    17     6     7    1
    18     7     8   ar
    19     8     9   ar
    20     9    10   ar
    21    10    11   ar
    22    11    12    1
    23    11    13   ar
    24     6     2   am
    25    13     7   ar
    26    24    16    1
    27    23    18    1
