@<TRIPOS>MOLECULE
*****
 30 33 0 0 0
SMALL
GASTEIGER

@<TRIPOS>ATOM
      1 C         138.9190  143.4914  162.4624 C.2     1  UNL1        0.2881
      2 O         137.9739  143.1200  161.3584 O.2     1  UNL1       -0.2664
      3 N         139.0180  142.6300  163.6864 N.am    1  UNL1       -0.2717
      4 C         139.9632  143.0014  164.7904 C.3     1  UNL1        0.1153
      5 C         140.0622  142.1401  166.0144 C.3     1  UNL1        0.1152
      6 N         139.2160  140.9074  166.1344 N.am    1  UNL1       -0.2726
      7 C         139.3149  140.0460  167.3585 C.2     1  UNL1        0.2491
      8 O         138.4688  138.8133  167.4786 O.2     1  UNL1       -0.2699
      9 C         138.2709  140.5360  165.0305 C.3     1  UNL1        0.1135
     10 C         138.1719  141.3974  163.8064 C.3     1  UNL1        0.0956
     11 C         137.2267  141.0260  162.7024 C.3     1  UNL1        0.0233
     12 C         140.2601  140.4174  168.4625 C.ar    1  UNL1        0.0536
     13 C         139.7779  141.2472  169.6152 C.ar    1  UNL1        0.0045
     14 C         140.7230  141.6186  170.7192 C.ar    1  UNL1        0.0001
     15 C         142.1504  141.1601  170.6704 C.ar    1  UNL1        0.0000
     16 C         142.6326  140.3303  169.5177 C.ar    1  UNL1        0.0001
     17 C         141.6875  139.9589  168.4137 C.ar    1  UNL1        0.0045
     18 C         139.7652  144.7242  162.3423 C.2     1  UNL1        0.2494
     19 O         139.1455  146.0200  161.9102 O.2     1  UNL1       -0.2819
     20 C         142.1676  143.0277  160.6629 C.2     1  UNL1        0.1360
     21 C         143.3991  142.3782  160.1048 C.2     1  UNL1        0.0837
     22 C         144.7275  142.5963  160.7664 C.2     1  UNL1        0.2385
     23 N         144.8244  143.4640  161.9860 N.2     1  UNL1       -0.0338
     24 C         143.5929  144.1135  162.5441 C.2     1  UNL1        0.3626
     25 N         143.3804  145.0141  163.7248 N.2     1  UNL1       -0.0341
     26 C         141.9207  145.3524  163.7929 C.2     1  UNL1        0.2356
     27 C         141.2310  144.6610  162.6543 C.2     1  UNL1        0.0868
     28 C         142.2645  143.8953  161.8826 C.3     1  UNL1        0.1975
     29 C         140.4294  143.6669  158.8408 C.3     1  UNL1        0.2520
     30 O         140.8392  142.8095  160.0013 O.2     1  UNL1       -0.4746
@<TRIPOS>BOND
     1    29    30    1
     2    30    20    1
     3    20    21    2
     4    21    22    1
     5    22    23    2
     6    23    24    1
     7    24    25    2
     8    25    26    1
     9    26    27    2
    10    27    18    1
    11    18    19    2
    12    18     1    1
    13     1     2    2
    14     1     3   am
    15     3     4    1
    16     4     5    1
    17     5     6    1
    18     6     7   am
    19     7     8    2
    20     7    12    1
    21    12    13   ar
    22    13    14   ar
    23    14    15   ar
    24    15    16   ar
    25    16    17   ar
    26     6     9    1
    27     9    10    1
    28    10    11    1
    29    27    28    1
    30    28    20    1
    31    28    24    1
    32    10     3    1
    33    17    12   ar
@<TRIPOS>MOLECULE
*****
 30 33 0 0 0
SMALL
GASTEIGER

@<TRIPOS>ATOM
      1 C         139.7100  139.5777  162.5058 C.2     1  UNL1        0.2881
      2 O         139.9320  138.5193  161.4663 O.2     1  UNL1       -0.2664
      3 N         140.4392  139.5080  163.8147 N.am    1  UNL1       -0.2717
      4 C         140.2172  140.5664  164.8542 C.3     1  UNL1        0.1153
      5 C         140.9464  140.4967  166.1632 C.3     1  UNL1        0.1152
      6 N         141.8976  139.3686  166.4326 N.am    1  UNL1       -0.2726
      7 C         142.6269  139.2989  167.7416 C.2     1  UNL1        0.2491
      8 O         143.5781  138.1708  168.0111 O.2     1  UNL1       -0.2699
      9 C         142.1196  138.3103  165.3931 C.3     1  UNL1        0.1135
     10 C         141.3904  138.3799  164.0841 C.3     1  UNL1        0.0956
     11 C         141.6124  137.3216  163.0446 C.3     1  UNL1        0.0233
     12 C         142.4048  140.3572  168.7811 C.ar    1  UNL1        0.0536
     13 C         143.2070  141.6241  168.7448 C.ar    1  UNL1        0.0045
     14 C         142.9850  142.6825  169.7843 C.ar    1  UNL1        0.0001
     15 C         141.9607  142.4740  170.8601 C.ar    1  UNL1        0.0000
     16 C         141.1585  141.2070  170.8964 C.ar    1  UNL1        0.0001
     17 C         141.3806  140.1487  169.8569 C.ar    1  UNL1        0.0045
     18 C         138.7587  140.7058  162.2363 C.2     1  UNL1        0.2494
     19 O         137.4819  140.8126  163.0161 O.2     1  UNL1       -0.2819
     20 C         139.3225  144.0164  162.6747 C.2     1  UNL1        0.1360
     21 C         139.6073  145.4873  162.6011 C.2     1  UNL1        0.0837
     22 C         139.8973  146.1298  161.2771 C.2     1  UNL1        0.2385
     23 N         139.9024  145.3015  160.0266 N.2     1  UNL1       -0.0338
     24 C         139.6176  143.8306  160.1001 C.2     1  UNL1        0.3626
     25 N         139.5536  142.7667  159.0447 N.2     1  UNL1       -0.0341
     26 C         139.2240  141.4666  159.7164 C.2     1  UNL1        0.2356
     27 C         139.0844  141.7271  161.1870 C.2     1  UNL1        0.0868
     28 C         139.3276  143.1881  161.4242 C.3     1  UNL1        0.1975
     29 C         138.1588  144.0741  164.9968 C.3     1  UNL1        0.2520
     30 O         139.0325  143.3739  163.9987 O.2     1  UNL1       -0.4746
@<TRIPOS>BOND
     1    29    30    1
     2    30    20    1
     3    20    21    2
     4    21    22    1
     5    22    23    2
     6    23    24    1
     7    24    25    2
     8    25    26    1
     9    26    27    2
    10    27    18    1
    11    18    19    2
    12    18     1    1
    13     1     2    2
    14     1     3   am
    15     3     4    1
    16     4     5    1
    17     5     6    1
    18     6     7   am
    19     7     8    2
    20     7    12    1
    21    12    13   ar
    22    13    14   ar
    23    14    15   ar
    24    15    16   ar
    25    16    17   ar
    26     6     9    1
    27     9    10    1
    28    10    11    1
    29    27    28    1
    30    28    20    1
    31    28    24    1
    32    10     3    1
    33    17    12   ar
@<TRIPOS>MOLECULE
*****
 30 33 0 0 0
SMALL
GASTEIGER

@<TRIPOS>ATOM
      1 C         141.5942  139.0659  162.3501 C.2     1  UNL1        0.2881
      2 O         140.7872  138.2928  161.3496 O.2     1  UNL1       -0.2664
      3 N         141.0785  139.2525  163.7463 N.am    1  UNL1       -0.2717
      4 C         141.8855  140.0256  164.7468 C.3     1  UNL1        0.1153
      5 C         141.3698  140.2123  166.1430 C.3     1  UNL1        0.1152
      6 N         140.0470  139.6258  166.5385 N.am    1  UNL1       -0.2726
      7 C         139.5312  139.8124  167.9346 C.2     1  UNL1        0.2491
      8 O         138.2085  139.2260  168.3302 O.2     1  UNL1       -0.2699
      9 C         139.2400  138.8528  165.5379 C.3     1  UNL1        0.1135
     10 C         139.7558  138.6661  164.1418 C.3     1  UNL1        0.0956
     11 C         138.9488  137.8930  163.1412 C.3     1  UNL1        0.0233
     12 C         140.3382  140.5855  168.9352 C.ar    1  UNL1        0.0536
     13 C         141.2486  139.8631  169.8835 C.ar    1  UNL1        0.0045
     14 C         142.0556  140.6362  170.8840 C.ar    1  UNL1        0.0001
     15 C         141.9522  142.1317  170.9363 C.ar    1  UNL1        0.0000
     16 C         141.0419  142.8541  169.9879 C.ar    1  UNL1        0.0001
     17 C         140.2349  142.0810  168.9874 C.ar    1  UNL1        0.0045
     18 C         142.9170  139.6523  161.9545 C.2     1  UNL1        0.2494
     19 O         144.1827  138.8900  162.2130 O.2     1  UNL1       -0.2819
     20 C         143.6683  140.3581  158.7284 C.2     1  UNL1        0.1360
     21 C         143.9624  140.9278  157.3724 C.2     1  UNL1        0.0837
     22 C         143.9003  142.4102  157.1522 C.2     1  UNL1        0.2385
     23 N         143.5440  143.3229  158.2879 N.2     1  UNL1       -0.0338
     24 C         143.2499  142.7532  159.6439 C.2     1  UNL1        0.3626
     25 N         142.8735  143.3996  160.9441 N.2     1  UNL1       -0.0341
     26 C         142.7030  142.3167  161.9680 C.2     1  UNL1        0.2356
     27 C         142.9740  141.0010  161.3005 C.2     1  UNL1        0.0868
     28 C         143.3120  141.2708  159.8642 C.3     1  UNL1        0.1975
     29 C         142.6513  137.9900  158.3999 C.3     1  UNL1        0.2520
     30 O         143.7304  138.8756  158.9487 O.2     1  UNL1       -0.4746
@<TRIPOS>BOND
     1    29    30    1
     2    30    20    1
     3    20    21    2
     4    21    22    1
     5    22    23    2
     6    23    24    1
     7    24    25    2
     8    25    26    1
     9    26    27    2
    10    27    18    1
    11    18    19    2
    12    18     1    1
    13     1     2    2
    14     1     3   am
    15     3     4    1
    16     4     5    1
    17     5     6    1
    18     6     7   am
    19     7     8    2
    20     7    12    1
    21    12    13   ar
    22    13    14   ar
    23    14    15   ar
    24    15    16   ar
    25    16    17   ar
    26     6     9    1
    27     9    10    1
    28    10    11    1
    29    27    28    1
    30    28    20    1
    31    28    24    1
    32    10     3    1
    33    17    12   ar
@<TRIPOS>MOLECULE
*****
 30 33 0 0 0
SMALL
GASTEIGER

@<TRIPOS>ATOM
      1 C         139.0988  142.7095  162.0129 C.2     1  UNL1        0.2881
      2 O         138.1366  141.9832  161.1204 O.2     1  UNL1       -0.2664
      3 N         139.3104  142.2449  163.4234 N.am    1  UNL1       -0.2717
      4 C         140.2726  142.9713  164.3159 C.3     1  UNL1        0.1153
      5 C         140.4842  142.5067  165.7264 C.3     1  UNL1        0.1152
      6 N         139.7336  141.3158  166.2443 N.am    1  UNL1       -0.2726
      7 C         139.9451  140.8512  167.6548 C.2     1  UNL1        0.2491
      8 O         139.1945  139.6603  168.1727 O.2     1  UNL1       -0.2699
      9 C         138.7714  140.5895  165.3518 C.3     1  UNL1        0.1135
     10 C         138.5598  141.0540  163.9413 C.3     1  UNL1        0.0956
     11 C         137.5976  140.3277  163.0488 C.3     1  UNL1        0.0233
     12 C         140.9073  141.5775  168.5473 C.ar    1  UNL1        0.0536
     13 C         140.4663  142.8092  169.2809 C.ar    1  UNL1        0.0045
     14 C         141.4285  143.5355  170.1734 C.ar    1  UNL1        0.0001
     15 C         142.8318  143.0302  170.3323 C.ar    1  UNL1        0.0000
     16 C         143.2729  141.7985  169.5986 C.ar    1  UNL1        0.0001
     17 C         142.3106  141.0721  168.7061 C.ar    1  UNL1        0.0045
     18 C         139.8495  143.9005  161.4950 C.2     1  UNL1        0.2494
     19 O         139.2573  145.2728  161.6203 O.2     1  UNL1       -0.2819
     20 C         140.5285  143.4876  158.2028 C.2     1  UNL1        0.1360
     21 C         141.0869  143.2918  156.8244 C.2     1  UNL1        0.0837
     22 C         142.5670  143.1473  156.6284 C.2     1  UNL1        0.2385
     23 N         143.4887  143.1984  157.8106 N.2     1  UNL1       -0.0338
     24 C         142.9303  143.3941  159.1890 C.2     1  UNL1        0.3626
     25 N         143.5871  143.4850  160.5345 N.2     1  UNL1       -0.0341
     26 C         142.5130  143.6858  161.5621 C.2     1  UNL1        0.2356
     27 C         141.1924  143.7189  160.8517 C.2     1  UNL1        0.0868
     28 C         141.4502  143.5387  159.3850 C.3     1  UNL1        0.1975
     29 C         138.1074  142.6622  157.7480 C.3     1  UNL1        0.2520
     30 O         139.0484  143.6321  158.3988 O.2     1  UNL1       -0.4746
@<TRIPOS>BOND
     1    29    30    1
     2    30    20    1
     3    20    21    2
     4    21    22    1
     5    22    23    2
     6    23    24    1
     7    24    25    2
     8    25    26    1
     9    26    27    2
    10    27    18    1
    11    18    19    2
    12    18     1    1
    13     1     2    2
    14     1     3   am
    15     3     4    1
    16     4     5    1
    17     5     6    1
    18     6     7   am
    19     7     8    2
    20     7    12    1
    21    12    13   ar
    22    13    14   ar
    23    14    15   ar
    24    15    16   ar
    25    16    17   ar
    26     6     9    1
    27     9    10    1
    28    10    11    1
    29    27    28    1
    30    28    20    1
    31    28    24    1
    32    10     3    1
    33    17    12   ar
@<TRIPOS>MOLECULE
*****
 30 33 0 0 0
SMALL
GASTEIGER

@<TRIPOS>ATOM
      1 C         139.1913  143.5370  161.9270 C.2     1  UNL1        0.2881
      2 O         138.1644  142.9748  160.9892 O.2     1  UNL1       -0.2664
      3 N         139.3703  142.9371  163.2901 N.am    1  UNL1       -0.2717
      4 C         140.3972  143.4993  164.2279 C.3     1  UNL1        0.1153
      5 C         140.5762  142.8995  165.5911 C.3     1  UNL1        0.1152
      6 N         139.7284  141.7375  166.0163 N.am    1  UNL1       -0.2726
      7 C         139.9073  141.1377  167.3795 C.2     1  UNL1        0.2491
      8 O         139.0595  139.9757  167.8049 O.2     1  UNL1       -0.2699
      9 C         138.7015  141.1754  165.0785 C.3     1  UNL1        0.1135
     10 C         138.5225  141.7752  163.7154 C.3     1  UNL1        0.0956
     11 C         137.4956  141.2130  162.7776 C.3     1  UNL1        0.0233
     12 C         140.9342  141.6999  168.3173 C.ar    1  UNL1        0.0536
     13 C         142.3001  141.0844  168.3903 C.ar    1  UNL1        0.0045
     14 C         143.3270  141.6466  169.3281 C.ar    1  UNL1        0.0001
     15 C         142.9879  142.8243  170.1930 C.ar    1  UNL1        0.0000
     16 C         141.6220  143.4398  170.1200 C.ar    1  UNL1        0.0001
     17 C         140.5951  142.8776  169.1822 C.ar    1  UNL1        0.0045
     18 C         140.0391  144.6990  161.5016 C.2     1  UNL1        0.2494
     19 O         140.2358  145.8625  162.4276 O.2     1  UNL1       -0.2819
     20 C         142.8695  143.0894  160.5697 C.2     1  UNL1        0.1360
     21 C         144.0767  142.4864  159.9148 C.2     1  UNL1        0.0837
     22 C         144.3619  142.7629  158.4683 C.2     1  UNL1        0.2385
     23 N         143.4399  143.6423  157.6768 N.2     1  UNL1       -0.0338
     24 C         142.2327  144.2453  158.3318 C.2     1  UNL1        0.3626
     25 N         141.1517  145.1448  157.8099 N.2     1  UNL1       -0.0341
     26 C         140.1984  145.4242  158.9338 C.2     1  UNL1        0.2356
     27 C         140.6903  144.6975  160.1503 C.2     1  UNL1        0.0868
     28 C         141.9475  143.9689  159.7783 C.3     1  UNL1        0.1975
     29 C         143.7040  142.4470  162.9448 C.3     1  UNL1        0.2520
     30 O         142.5843  142.8130  162.0162 O.2     1  UNL1       -0.4746
@<TRIPOS>BOND
     1    29    30    1
     2    30    20    1
     3    20    21    2
     4    21    22    1
     5    22    23    2
     6    23    24    1
     7    24    25    2
     8    25    26    1
     9    26    27    2
    10    27    18    1
    11    18    19    2
    12    18     1    1
    13     1     2    2
    14     1     3   am
    15     3     4    1
    16     4     5    1
    17     5     6    1
    18     6     7   am
    19     7     8    2
    20     7    12    1
    21    12    13   ar
    22    13    14   ar
    23    14    15   ar
    24    15    16   ar
    25    16    17   ar
    26     6     9    1
    27     9    10    1
    28    10    11    1
    29    27    28    1
    30    28    20    1
    31    28    24    1
    32    10     3    1
    33    17    12   ar
@<TRIPOS>MOLECULE
*****
 30 33 0 0 0
SMALL
GASTEIGER

@<TRIPOS>ATOM
      1 C         140.5822  138.8721  162.2348 C.2     1  UNL1        0.2881
      2 O         139.6756  137.8933  161.5492 O.2     1  UNL1       -0.2664
      3 N         140.3950  139.1741  163.6921 N.am    1  UNL1       -0.2717
      4 C         141.3016  140.1529  164.3777 C.3     1  UNL1        0.1153
      5 C         141.1144  140.4549  165.8350 C.3     1  UNL1        0.1152
      6 N         140.0206  139.7781  166.6066 N.am    1  UNL1       -0.2726
      7 C         139.8333  140.0801  168.0640 C.2     1  UNL1        0.2491
      8 O         138.7395  139.4033  168.8357 O.2     1  UNL1       -0.2699
      9 C         139.1140  138.7993  165.9211 C.3     1  UNL1        0.1135
     10 C         139.3012  138.4973  164.4637 C.3     1  UNL1        0.0956
     11 C         138.3946  137.5185  163.7782 C.3     1  UNL1        0.0233
     12 C         140.7399  141.0589  168.7496 C.ar    1  UNL1        0.0536
     13 C         140.2559  142.4466  169.0494 C.ar    1  UNL1        0.0045
     14 C         141.1625  143.4254  169.7350 C.ar    1  UNL1        0.0001
     15 C         142.5532  143.0165  170.1208 C.ar    1  UNL1        0.0000
     16 C         143.0372  141.6288  169.8209 C.ar    1  UNL1        0.0001
     17 C         142.1306  140.6500  169.1353 C.ar    1  UNL1        0.0045
     18 C         141.6761  139.5489  161.4630 C.2     1  UNL1        0.2494
     19 O         142.7753  138.7339  160.8487 O.2     1  UNL1       -0.2819
     20 C         143.9935  141.7556  162.5723 C.2     1  UNL1        0.1360
     21 C         144.8599  142.9197  162.9520 C.2     1  UNL1        0.0837
     22 C         144.4527  144.3127  162.5731 C.2     1  UNL1        0.2385
     23 N         143.1791  144.5417  161.8145 N.2     1  UNL1       -0.0338
     24 C         142.3127  143.3776  161.4348 C.2     1  UNL1        0.3626
     25 N         141.0118  143.2946  160.6927 N.2     1  UNL1       -0.0341
     26 C         140.6149  141.8503  160.6129 C.2     1  UNL1        0.2356
     27 C         141.6706  141.0406  161.3057 C.2     1  UNL1        0.0868
     28 C         142.7199  141.9846  161.8137 C.3     1  UNL1        0.1975
     29 C         144.9374  140.0853  164.3241 C.3     1  UNL1        0.2520
     30 O         144.4006  140.3625  162.9512 O.2     1  UNL1       -0.4746
@<TRIPOS>BOND
     1    29    30    1
     2    30    20    1
     3    20    21    2
     4    21    22    1
     5    22    23    2
     6    23    24    1
     7    24    25    2
     8    25    26    1
     9    26    27    2
    10    27    18    1
    11    18    19    2
    12    18     1    1
    13     1     2    2
    14     1     3   am
    15     3     4    1
    16     4     5    1
    17     5     6    1
    18     6     7   am
    19     7     8    2
    20     7    12    1
    21    12    13   ar
    22    13    14   ar
    23    14    15   ar
    24    15    16   ar
    25    16    17   ar
    26     6     9    1
    27     9    10    1
    28    10    11    1
    29    27    28    1
    30    28    20    1
    31    28    24    1
    32    10     3    1
    33    17    12   ar
@<TRIPOS>MOLECULE
*****
 30 33 0 0 0
SMALL
GASTEIGER

@<TRIPOS>ATOM
      1 C         141.1500  144.3000  161.9071 C.2     1  UNL1        0.2881
      2 O         142.2536  144.7733  161.0082 O.2     1  UNL1       -0.2664
      3 N         141.4627  143.8399  163.3002 N.am    1  UNL1       -0.2717
      4 C         140.3591  143.3666  164.1991 C.3     1  UNL1        0.1153
      5 C         140.6717  142.9065  165.5922 C.3     1  UNL1        0.1152
      6 N         142.0880  142.9197  166.0862 N.am    1  UNL1       -0.2726
      7 C         142.4007  142.4597  167.4792 C.2     1  UNL1        0.2491
      8 O         143.8169  142.4728  167.9733 O.2     1  UNL1       -0.2699
      9 C         143.1915  143.3930  165.1872 C.3     1  UNL1        0.1135
     10 C         142.8789  143.8531  163.7942 C.3     1  UNL1        0.0956
     11 C         143.9825  144.3264  162.8952 C.3     1  UNL1        0.0233
     12 C         141.2971  141.9864  168.3782 C.ar    1  UNL1        0.0536
     13 C         140.7429  142.9004  169.4305 C.ar    1  UNL1        0.0045
     14 C         139.6393  142.4271  170.3295 C.ar    1  UNL1        0.0001
     15 C         139.0900  141.0398  170.1761 C.ar    1  UNL1        0.0000
     16 C         139.6442  140.1258  169.1238 C.ar    1  UNL1        0.0001
     17 C         140.7478  140.5991  168.2249 C.ar    1  UNL1        0.0045
     18 C         139.7337  144.2868  161.4130 C.2     1  UNL1        0.2494
     19 O         138.8217  145.4375  161.7198 O.2     1  UNL1       -0.2819
     20 C         139.7347  143.9366  158.0444 C.2     1  UNL1        0.1360
     21 C         139.6209  143.5419  156.6018 C.2     1  UNL1        0.0837
     22 C         139.0210  142.2179  156.2316 C.2     1  UNL1        0.2385
     23 N         138.5349  141.2886  157.3040 N.2     1  UNL1       -0.0338
     24 C         138.6487  141.6833  158.7466 C.2     1  UNL1        0.3626
     25 N         138.2589  140.9807  160.0132 N.2     1  UNL1       -0.0341
     26 C         138.6179  141.8704  161.1662 C.2     1  UNL1        0.2356
     27 C         139.2296  143.1229  160.6122 C.2     1  UNL1        0.0868
     28 C         139.2486  143.0074  159.1168 C.3     1  UNL1        0.1975
     29 C         141.3628  145.8934  157.5244 C.3     1  UNL1        0.2520
     30 O         140.3346  145.2607  158.4146 O.2     1  UNL1       -0.4746
@<TRIPOS>BOND
     1    29    30    1
     2    30    20    1
     3    20    21    2
     4    21    22    1
     5    22    23    2
     6    23    24    1
     7    24    25    2
     8    25    26    1
     9    26    27    2
    10    27    18    1
    11    18    19    2
    12    18     1    1
    13     1     2    2
    14     1     3   am
    15     3     4    1
    16     4     5    1
    17     5     6    1
    18     6     7   am
    19     7     8    2
    20     7    12    1
    21    12    13   ar
    22    13    14   ar
    23    14    15   ar
    24    15    16   ar
    25    16    17   ar
    26     6     9    1
    27     9    10    1
    28    10    11    1
    29    27    28    1
    30    28    20    1
    31    28    24    1
    32    10     3    1
    33    17    12   ar
@<TRIPOS>MOLECULE
*****
 30 33 0 0 0
SMALL
GASTEIGER

@<TRIPOS>ATOM
      1 C         143.0385  141.8552  161.9298 C.2     1  UNL1        0.2881
      2 O         143.8225  140.9823  160.9952 O.2     1  UNL1       -0.2664
      3 N         142.8808  141.4619  163.3687 N.am    1  UNL1       -0.2717
      4 C         142.0968  142.3348  164.3033 C.3     1  UNL1        0.1153
      5 C         141.9391  141.9414  165.7422 C.3     1  UNL1        0.1152
      6 N         142.5654  140.6752  166.2464 N.am    1  UNL1       -0.2726
      7 C         142.4078  140.2817  167.6853 C.2     1  UNL1        0.2491
      8 O         143.0340  139.0155  168.1896 O.2     1  UNL1       -0.2699
      9 C         143.3494  139.8023  165.3118 C.3     1  UNL1        0.1135
     10 C         143.5071  140.1956  163.8729 C.3     1  UNL1        0.0956
     11 C         144.2911  139.3227  162.9384 C.3     1  UNL1        0.0233
     12 C         141.6238  141.1546  168.6199 C.ar    1  UNL1        0.0536
     13 C         140.2616  140.7274  169.0800 C.ar    1  UNL1        0.0045
     14 C         139.4776  141.6003  170.0146 C.ar    1  UNL1        0.0001
     15 C         140.0559  142.9005  170.4890 C.ar    1  UNL1        0.0000
     16 C         141.4181  143.3277  170.0288 C.ar    1  UNL1        0.0001
     17 C         142.2020  142.4548  169.0943 C.ar    1  UNL1        0.0045
     18 C         142.4122  143.1216  161.4255 C.2     1  UNL1        0.2494
     19 O         143.0985  144.4370  161.6455 O.2     1  UNL1       -0.2819
     20 C         141.8318  143.7489  158.1483 C.2     1  UNL1        0.1360
     21 C         141.3172  143.9726  156.7572 C.2     1  UNL1        0.0837
     22 C         139.8560  143.8055  156.4622 C.2     1  UNL1        0.2385
     23 N         138.9094  143.4148  157.5582 N.2     1  UNL1       -0.0338
     24 C         139.4241  143.1911  158.9493 C.2     1  UNL1        0.3626
     25 N         138.7354  142.8020  160.2238 N.2     1  UNL1       -0.0341
     26 C         139.7709  142.7286  161.3065 C.2     1  UNL1        0.2356
     27 C         141.0996  143.0723  160.7011 C.2     1  UNL1        0.0868
     28 C         140.8852  143.3581  159.2443 C.3     1  UNL1        0.1975
     29 C         144.2510  142.8015  158.1429 C.3     1  UNL1        0.2520
     30 O         143.2930  143.9159  158.4433 O.2     1  UNL1       -0.4746
@<TRIPOS>BOND
     1    29    30    1
     2    30    20    1
     3    20    21    2
     4    21    22    1
     5    22    23    2
     6    23    24    1
     7    24    25    2
     8    25    26    1
     9    26    27    2
    10    27    18    1
    11    18    19    2
    12    18     1    1
    13     1     2    2
    14     1     3   am
    15     3     4    1
    16     4     5    1
    17     5     6    1
    18     6     7   am
    19     7     8    2
    20     7    12    1
    21    12    13   ar
    22    13    14   ar
    23    14    15   ar
    24    15    16   ar
    25    16    17   ar
    26     6     9    1
    27     9    10    1
    28    10    11    1
    29    27    28    1
    30    28    20    1
    31    28    24    1
    32    10     3    1
    33    17    12   ar
@<TRIPOS>MOLECULE
*****
 30 33 0 0 0
SMALL
GASTEIGER

@<TRIPOS>ATOM
      1 C         140.2602  141.1095  161.6857 C.2     1  UNL1        0.2881
      2 O         139.3472  140.3029  160.8105 O.2     1  UNL1       -0.2664
      3 N         140.1916  140.9638  163.1770 N.am    1  UNL1       -0.2717
      4 C         141.1046  141.7703  164.0522 C.3     1  UNL1        0.1153
      5 C         141.0360  141.6247  165.5435 C.3     1  UNL1        0.1152
      6 N         140.0543  140.6725  166.1596 N.am    1  UNL1       -0.2726
      7 C         139.9856  140.5267  167.6510 C.2     1  UNL1        0.2491
      8 O         139.0040  139.5746  168.2672 O.2     1  UNL1       -0.2699
      9 C         139.1413  139.8659  165.2845 C.3     1  UNL1        0.1135
     10 C         139.2099  140.0116  163.7931 C.3     1  UNL1        0.0956
     11 C         138.2970  139.2051  162.9180 C.3     1  UNL1        0.0233
     12 C         140.8986  141.3333  168.5261 C.ar    1  UNL1        0.0536
     13 C         142.2803  140.8347  168.8298 C.ar    1  UNL1        0.0045
     14 C         143.1933  141.6412  169.7049 C.ar    1  UNL1        0.0001
     15 C         142.7246  142.9465  170.2765 C.ar    1  UNL1        0.0000
     16 C         141.3429  143.4451  169.9729 C.ar    1  UNL1        0.0001
     17 C         140.4299  142.6385  169.0977 C.ar    1  UNL1        0.0045
     18 C         141.2419  142.0617  161.0695 C.2     1  UNL1        0.2494
     19 O         142.6818  141.6665  160.9272 O.2     1  UNL1       -0.2819
     20 C         141.2247  143.2440  157.8958 C.2     1  UNL1        0.1360
     21 C         141.1144  143.9919  156.6003 C.2     1  UNL1        0.0837
     22 C         140.5721  145.3903  156.5853 C.2     1  UNL1        0.2385
     23 N         140.1401  146.0409  157.8659 N.2     1  UNL1       -0.0338
     24 C         140.2504  145.2931  159.1615 C.2     1  UNL1        0.3626
     25 N         139.9061  145.6718  160.5715 N.2     1  UNL1       -0.0341
     26 C         140.2356  144.5075  161.4579 C.2     1  UNL1        0.2356
     27 C         140.7836  143.4091  160.5957 C.2     1  UNL1        0.0868
     28 C         140.7927  143.8946  159.1764 C.3     1  UNL1        0.1975
     29 C         140.8682  140.6891  157.5873 C.3     1  UNL1        0.2520
     30 O         141.7670  141.8456  157.9108 O.2     1  UNL1       -0.4746
@<TRIPOS>BOND
     1    29    30    1
     2    30    20    1
     3    20    21    2
     4    21    22    1
     5    22    23    2
     6    23    24    1
     7    24    25    2
     8    25    26    1
     9    26    27    2
    10    27    18    1
    11    18    19    2
    12    18     1    1
    13     1     2    2
    14     1     3   am
    15     3     4    1
    16     4     5    1
    17     5     6    1
    18     6     7   am
    19     7     8    2
    20     7    12    1
    21    12    13   ar
    22    13    14   ar
    23    14    15   ar
    24    15    16   ar
    25    16    17   ar
    26     6     9    1
    27     9    10    1
    28    10    11    1
    29    27    28    1
    30    28    20    1
    31    28    24    1
    32    10     3    1
    33    17    12   ar
