@<TRIPOS>MOLECULE
*****
 27 29 0 0 0
SMALL
GASTEIGER

@<TRIPOS>ATOM
      1 N         138.9587  139.5715  160.3066 N.3     1  UNL1       -0.2690
      2 C         140.1266  138.8795  160.9447 C.3     1  UNL1        0.0724
      3 C         141.3100  138.4834  160.1124 C.3     1  UNL1        0.0191
      4 C         141.3254  138.7792  158.6420 C.3     1  UNL1        0.0224
      5 C         140.1576  139.4711  158.0038 C.3     1  UNL1        0.0191
      6 C         138.9741  139.8673  158.8361 C.3     1  UNL1        0.0724
      7 C         137.7753  139.9676  161.1389 C.3     1  UNL1        0.0991
      8 C         138.2280  144.5177  165.0236 C.3     1  UNL1        0.0310
      9 C         138.1148  143.3802  164.0524 C.ar    1  UNL1       -0.0219
     10 C         138.1363  143.6488  162.5769 C.ar    1  UNL1       -0.0045
     11 C         138.0231  142.5113  161.6057 C.ar    1  UNL1       -0.0032
     12 C         137.8885  141.1051  162.1101 C.ar    1  UNL1       -0.0062
     13 C         137.8670  140.8365  163.5856 C.ar    1  UNL1       -0.0032
     14 C         137.9802  141.9740  164.5568 C.ar    1  UNL1       -0.0045
     15 C         142.5089  138.3831  157.8097 C.3     1  UNL1        0.0897
     16 N         142.9271  136.9444  157.7373 N.am    1  UNL1       -0.3009
     17 C         142.2896  136.0276  156.7359 C.2     1  UNL1        0.2459
     18 O         141.2340  136.5494  155.8067 O.2     1  UNL1       -0.2701
     19 H         143.6199  136.6019  158.3472 H       1  UNL1        0.1497
     20 C         142.7078  134.5888  156.6635 C.ar    1  UNL1        0.0550
     21 C         143.9134  134.1191  157.4225 C.ar    1  UNL1        0.0160
     22 C         144.3316  132.6804  157.3502 C.ar    1  UNL1        0.0587
     23 CL        145.5371  132.2108  158.1092 Cl      1  UNL1       -0.0822
     24 C         143.5443  131.7115  156.5188 C.ar    1  UNL1        0.0228
     25 C         142.3387  132.1812  155.7598 C.ar    1  UNL1        0.0587
     26 CL        141.5514  131.2121  154.9284 Cl      1  UNL1       -0.0822
     27 C         141.9205  133.6198  155.8321 C.ar    1  UNL1        0.0160
@<TRIPOS>BOND
     1     8     9    1
     2     9    10   ar
     3    10    11   ar
     4    11    12   ar
     5    12     7    1
     6     7     1    1
     7     1     2    1
     8     2     3    1
     9     3     4    1
    10     4    15    1
    11    15    16    1
    12    16    17   am
    13    17    18    2
    14    17    20    1
    15    20    21   ar
    16    21    22   ar
    17    22    23    1
    18    22    24   ar
    19    24    25   ar
    20    25    26    1
    21    25    27   ar
    22     4     5    1
    23     5     6    1
    24    12    13   ar
    25    13    14   ar
    26    14     9   ar
    27     6     1    1
    28    27    20   ar
    29    16    19    1
@<TRIPOS>MOLECULE
*****
 27 29 0 0 0
SMALL
GASTEIGER

@<TRIPOS>ATOM
      1 N         139.4788  138.8603  161.0939 N.3     1  UNL1       -0.2690
      2 C         140.8952  138.4777  161.4062 C.3     1  UNL1        0.0724
      3 C         141.8895  138.3114  160.2954 C.3     1  UNL1        0.0191
      4 C         141.4674  138.5277  158.8724 C.3     1  UNL1        0.0224
      5 C         140.0511  138.9103  158.5601 C.3     1  UNL1        0.0191
      6 C         139.0568  139.0766  159.6708 C.3     1  UNL1        0.0724
      7 C         138.4846  139.0266  162.2046 C.3     1  UNL1        0.0991
      8 C         137.9051  144.3338  164.9427 C.3     1  UNL1        0.0310
      9 C         138.0500  143.0070  164.2582 C.ar    1  UNL1       -0.0219
     10 C         138.6295  141.8395  165.0004 C.ar    1  UNL1       -0.0045
     11 C         138.7743  140.5127  164.3159 C.ar    1  UNL1       -0.0032
     12 C         138.3397  140.3534  162.8891 C.ar    1  UNL1       -0.0062
     13 C         137.7602  141.5210  162.1469 C.ar    1  UNL1       -0.0032
     14 C         137.6154  142.8478  162.8314 C.ar    1  UNL1       -0.0045
     15 C         142.4618  138.3614  157.7616 C.3     1  UNL1        0.0897
     16 N         143.0559  137.0127  157.4826 N.am    1  UNL1       -0.3009
     17 C         142.3175  136.0316  156.6210 C.2     1  UNL1        0.2459
     18 O         140.9850  136.3993  156.0386 O.2     1  UNL1       -0.2701
     19 H         143.9304  136.7713  157.8648 H       1  UNL1        0.1497
     20 C         142.9115  134.6828  156.3419 C.ar    1  UNL1        0.0550
     21 C         142.5998  133.9777  155.0552 C.ar    1  UNL1        0.0160
     22 C         143.1938  132.6290  154.7760 C.ar    1  UNL1        0.0587
     23 CL        142.8821  131.9239  153.4893 Cl      1  UNL1       -0.0822
     24 C         144.0996  131.9853  155.7836 C.ar    1  UNL1        0.0228
     25 C         144.4113  132.6904  157.0703 C.ar    1  UNL1        0.0587
     26 CL        145.3172  132.0467  158.0779 Cl      1  UNL1       -0.0822
     27 C         143.8173  134.0392  157.3495 C.ar    1  UNL1        0.0160
@<TRIPOS>BOND
     1     8     9    1
     2     9    10   ar
     3    10    11   ar
     4    11    12   ar
     5    12     7    1
     6     7     1    1
     7     1     2    1
     8     2     3    1
     9     3     4    1
    10     4    15    1
    11    15    16    1
    12    16    17   am
    13    17    18    2
    14    17    20    1
    15    20    21   ar
    16    21    22   ar
    17    22    23    1
    18    22    24   ar
    19    24    25   ar
    20    25    26    1
    21    25    27   ar
    22     4     5    1
    23     5     6    1
    24    12    13   ar
    25    13    14   ar
    26    14     9   ar
    27     6     1    1
    28    27    20   ar
    29    16    19    1
@<TRIPOS>MOLECULE
*****
 27 29 0 0 0
SMALL
GASTEIGER

@<TRIPOS>ATOM
      1 N         139.2529  138.6875  161.2191 N.3     1  UNL1       -0.2690
      2 C         140.6295  138.2289  161.5993 C.3     1  UNL1        0.0724
      3 C         141.7022  138.1305  160.5555 C.3     1  UNL1        0.0191
      4 C         141.3983  138.4907  159.1314 C.3     1  UNL1        0.0224
      5 C         140.0217  138.9493  158.7512 C.3     1  UNL1        0.0191
      6 C         138.9490  139.0477  159.7950 C.3     1  UNL1        0.0724
      7 C         138.1802  138.7860  162.2629 C.3     1  UNL1        0.0991
      8 C         139.6044  140.2798  167.8967 C.3     1  UNL1        0.0310
      9 C         139.2483  139.9063  166.4883 C.ar    1  UNL1       -0.0219
     10 C         139.0488  138.4655  166.1220 C.ar    1  UNL1       -0.0045
     11 C         138.6927  138.0921  164.7136 C.ar    1  UNL1       -0.0032
     12 C         138.5362  139.1594  163.6714 C.ar    1  UNL1       -0.0062
     13 C         138.7358  140.6002  164.0376 C.ar    1  UNL1       -0.0032
     14 C         139.0918  140.9737  165.4461 C.ar    1  UNL1       -0.0045
     15 C         142.4711  138.3922  158.0876 C.3     1  UNL1        0.0897
     16 N         143.0615  137.0572  157.7425 N.am    1  UNL1       -0.3009
     17 C         142.3284  136.1288  156.8201 C.2     1  UNL1        0.2459
     18 O         141.0050  136.5355  156.2430 O.2     1  UNL1       -0.2701
     19 H         143.9301  136.7903  158.1213 H       1  UNL1        0.1497
     20 C         142.9188  134.7937  156.4750 C.ar    1  UNL1        0.0550
     21 C         143.8420  134.1100  157.4394 C.ar    1  UNL1        0.0160
     22 C         144.4324  132.7750  157.0943 C.ar    1  UNL1        0.0587
     23 CL        145.3557  132.0913  158.0588 Cl      1  UNL1       -0.0822
     24 C         144.0995  132.1237  155.7848 C.ar    1  UNL1        0.0228
     25 C         143.1763  132.8074  154.8203 C.ar    1  UNL1        0.0587
     26 CL        142.8434  132.1560  153.5107 Cl      1  UNL1       -0.0822
     27 C         142.5859  134.1424  155.1654 C.ar    1  UNL1        0.0160
@<TRIPOS>BOND
     1     8     9    1
     2     9    10   ar
     3    10    11   ar
     4    11    12   ar
     5    12     7    1
     6     7     1    1
     7     1     2    1
     8     2     3    1
     9     3     4    1
    10     4    15    1
    11    15    16    1
    12    16    17   am
    13    17    18    2
    14    17    20    1
    15    20    21   ar
    16    21    22   ar
    17    22    23    1
    18    22    24   ar
    19    24    25   ar
    20    25    26    1
    21    25    27   ar
    22     4     5    1
    23     5     6    1
    24    12    13   ar
    25    13    14   ar
    26    14     9   ar
    27     6     1    1
    28    27    20   ar
    29    16    19    1
@<TRIPOS>MOLECULE
*****
 27 29 0 0 0
SMALL
GASTEIGER

@<TRIPOS>ATOM
      1 N         139.7085  142.3511  164.6285 N.3     1  UNL1       -0.2690
      2 C         140.9846  142.5888  163.8767 C.3     1  UNL1        0.0724
      3 C         141.1093  143.7750  162.9670 C.3     1  UNL1        0.0191
      4 C         139.9579  144.7234  162.8092 C.3     1  UNL1        0.0224
      5 C         138.6819  144.4856  163.5609 C.3     1  UNL1        0.0191
      6 C         138.5572  143.2994  164.4706 C.3     1  UNL1        0.0724
      7 C         139.5839  141.1649  165.5382 C.3     1  UNL1        0.0991
      8 C         140.9818  141.6814  171.3501 C.3     1  UNL1        0.0310
      9 C         140.6324  141.5522  169.8971 C.ar    1  UNL1       -0.0219
     10 C         140.8940  142.6927  168.9586 C.ar    1  UNL1       -0.0045
     11 C         140.5445  142.5636  167.5056 C.ar    1  UNL1       -0.0032
     12 C         139.9334  141.2940  166.9912 C.ar    1  UNL1       -0.0062
     13 C         139.6717  140.1536  167.9297 C.ar    1  UNL1       -0.0032
     14 C         140.0212  140.2827  169.3827 C.ar    1  UNL1       -0.0045
     15 C         140.0826  145.9096  161.8995 C.3     1  UNL1        0.0897
     16 N         139.6302  145.8114  160.4727 N.am    1  UNL1       -0.3009
     17 C         140.5848  145.3457  159.4136 C.2     1  UNL1        0.2459
     18 O         141.9919  144.9782  159.7812 O.2     1  UNL1       -0.2701
     19 H         138.7067  146.0526  160.2314 H       1  UNL1        0.1497
     20 C         140.1324  145.2475  157.9868 C.ar    1  UNL1        0.0550
     21 C         139.7265  143.9200  157.4184 C.ar    1  UNL1        0.0160
     22 C         139.2741  143.8218  155.9916 C.ar    1  UNL1        0.0587
     23 CL        138.8682  142.4943  155.4232 Cl      1  UNL1       -0.0822
     24 C         139.2277  145.0510  155.1333 C.ar    1  UNL1        0.0228
     25 C         139.6336  146.3785  155.7017 C.ar    1  UNL1        0.0587
     26 CL        139.5871  147.6077  154.8432 Cl      1  UNL1       -0.0822
     27 C         140.0860  146.4767  157.1284 C.ar    1  UNL1        0.0160
@<TRIPOS>BOND
     1     8     9    1
     2     9    10   ar
     3    10    11   ar
     4    11    12   ar
     5    12     7    1
     6     7     1    1
     7     1     2    1
     8     2     3    1
     9     3     4    1
    10     4    15    1
    11    15    16    1
    12    16    17   am
    13    17    18    2
    14    17    20    1
    15    20    21   ar
    16    21    22   ar
    17    22    23    1
    18    22    24   ar
    19    24    25   ar
    20    25    26    1
    21    25    27   ar
    22     4     5    1
    23     5     6    1
    24    12    13   ar
    25    13    14   ar
    26    14     9   ar
    27     6     1    1
    28    27    20   ar
    29    16    19    1
@<TRIPOS>MOLECULE
*****
 27 29 0 0 0
SMALL
GASTEIGER

@<TRIPOS>ATOM
      1 N         142.0821  139.6228  162.4706 N.3     1  UNL1       -0.2690
      2 C         141.4067  140.2467  161.2854 C.3     1  UNL1        0.0724
      3 C         141.6316  139.6856  159.9127 C.3     1  UNL1        0.0191
      4 C         142.5320  138.5006  159.7250 C.3     1  UNL1        0.0224
      5 C         143.2074  137.8767  160.9102 C.3     1  UNL1        0.0191
      6 C         142.9824  138.4379  162.2830 C.3     1  UNL1        0.0724
      7 C         141.8572  140.1840  163.8434 C.3     1  UNL1        0.0991
      8 C         137.3378  138.1371  167.2176 C.3     1  UNL1        0.0310
      9 C         138.4676  138.6488  166.3740 C.ar    1  UNL1       -0.0219
     10 C         139.2284  139.8693  166.7999 C.ar    1  UNL1       -0.0045
     11 C         140.3583  140.3811  165.9563 C.ar    1  UNL1       -0.0032
     12 C         140.7273  139.6722  164.6869 C.ar    1  UNL1       -0.0062
     13 C         139.9665  138.4517  164.2611 C.ar    1  UNL1       -0.0032
     14 C         138.8366  137.9400  165.1047 C.ar    1  UNL1       -0.0045
     15 C         142.7569  137.9395  158.3522 C.3     1  UNL1        0.0897
     16 N         142.6060  136.4669  158.1099 N.am    1  UNL1       -0.3009
     17 C         143.3090  135.8214  156.9527 C.2     1  UNL1        0.2459
     18 O         144.1629  136.6484  156.0379 O.2     1  UNL1       -0.2701
     19 H         142.0456  135.9241  158.7103 H       1  UNL1        0.1497
     20 C         143.1581  134.3488  156.7103 C.ar    1  UNL1        0.0550
     21 C         144.0730  133.3782  157.3966 C.ar    1  UNL1        0.0160
     22 C         143.9222  131.9056  157.1543 C.ar    1  UNL1        0.0587
     23 CL        144.8370  130.9350  157.8406 Cl      1  UNL1       -0.0822
     24 C         142.8565  131.4037  156.2256 C.ar    1  UNL1        0.0228
     25 C         141.9417  132.3743  155.5393 C.ar    1  UNL1        0.0587
     26 CL        140.8760  131.8723  154.6106 Cl      1  UNL1       -0.0822
     27 C         142.0925  133.8468  155.7817 C.ar    1  UNL1        0.0160
@<TRIPOS>BOND
     1     8     9    1
     2     9    10   ar
     3    10    11   ar
     4    11    12   ar
     5    12     7    1
     6     7     1    1
     7     1     2    1
     8     2     3    1
     9     3     4    1
    10     4    15    1
    11    15    16    1
    12    16    17   am
    13    17    18    2
    14    17    20    1
    15    20    21   ar
    16    21    22   ar
    17    22    23    1
    18    22    24   ar
    19    24    25   ar
    20    25    26    1
    21    25    27   ar
    22     4     5    1
    23     5     6    1
    24    12    13   ar
    25    13    14   ar
    26    14     9   ar
    27     6     1    1
    28    27    20   ar
    29    16    19    1
@<TRIPOS>MOLECULE
*****
 27 29 0 0 0
SMALL
GASTEIGER

@<TRIPOS>ATOM
      1 N         139.6315  142.6797  164.9684 N.3     1  UNL1       -0.2690
      2 C         140.8665  143.5312  164.9590 C.3     1  UNL1        0.0724
      3 C         140.9778  144.6804  164.0015 C.3     1  UNL1        0.0191
      4 C         139.8543  144.9782  163.0533 C.3     1  UNL1        0.0224
      5 C         138.6195  144.1268  163.0627 C.3     1  UNL1        0.0191
      6 C         138.5080  142.9775  164.0202 C.3     1  UNL1        0.0724
      7 C         139.5202  141.5305  165.9259 C.3     1  UNL1        0.0991
      8 C         144.1583  137.8017  166.6898 C.3     1  UNL1        0.0310
      9 C         142.9988  138.7339  166.4988 C.ar    1  UNL1       -0.0219
     10 C         142.2744  138.7707  165.1859 C.ar    1  UNL1       -0.0045
     11 C         141.1149  139.7029  164.9949 C.ar    1  UNL1       -0.0032
     12 C         140.6797  140.5983  166.1169 C.ar    1  UNL1       -0.0062
     13 C         141.4041  140.5615  167.4298 C.ar    1  UNL1       -0.0032
     14 C         142.5636  139.6293  167.6208 C.ar    1  UNL1       -0.0045
     15 C         139.9658  146.1275  162.0958 C.3     1  UNL1        0.0897
     16 N         139.6006  145.9398  160.6531 N.am    1  UNL1       -0.3009
     17 C         140.5823  145.3161  159.7060 C.2     1  UNL1        0.2459
     18 O         141.9293  144.8801  160.2016 O.2     1  UNL1       -0.2701
     19 H         138.7165  146.2260  160.3279 H       1  UNL1        0.1497
     20 C         140.2172  145.1284  158.2632 C.ar    1  UNL1        0.0550
     21 C         139.9133  143.7563  157.7389 C.ar    1  UNL1        0.0160
     22 C         139.5482  143.5685  156.2962 C.ar    1  UNL1        0.0587
     23 CL        139.2444  142.1963  155.7719 Cl      1  UNL1       -0.0822
     24 C         139.4869  144.7529  155.3779 C.ar    1  UNL1        0.0228
     25 C         139.7907  146.1250  155.9022 C.ar    1  UNL1        0.0587
     26 CL        139.7293  147.3094  154.9838 Cl      1  UNL1       -0.0822
     27 C         140.1558  146.3128  157.3449 C.ar    1  UNL1        0.0160
@<TRIPOS>BOND
     1     8     9    1
     2     9    10   ar
     3    10    11   ar
     4    11    12   ar
     5    12     7    1
     6     7     1    1
     7     1     2    1
     8     2     3    1
     9     3     4    1
    10     4    15    1
    11    15    16    1
    12    16    17   am
    13    17    18    2
    14    17    20    1
    15    20    21   ar
    16    21    22   ar
    17    22    23    1
    18    22    24   ar
    19    24    25   ar
    20    25    26    1
    21    25    27   ar
    22     4     5    1
    23     5     6    1
    24    12    13   ar
    25    13    14   ar
    26    14     9   ar
    27     6     1    1
    28    27    20   ar
    29    16    19    1
@<TRIPOS>MOLECULE
*****
 27 29 0 0 0
SMALL
GASTEIGER

@<TRIPOS>ATOM
      1 N         139.0155  141.3942  165.3743 N.3     1  UNL1       -0.2690
      2 C         139.7372  142.6245  165.8386 C.3     1  UNL1        0.0724
      3 C         139.6811  143.8805  165.0206 C.3     1  UNL1        0.0191
      4 C         138.9033  143.9064  163.7383 C.3     1  UNL1        0.0224
      5 C         138.1816  142.6761  163.2739 C.3     1  UNL1        0.0191
      6 C         138.2377  141.4200  164.0919 C.3     1  UNL1        0.0724
      7 C         139.0717  140.1381  166.1922 C.3     1  UNL1        0.0991
      8 C         142.9850  139.6770  170.7170 C.3     1  UNL1        0.0310
      9 C         142.0067  139.7923  169.5858 C.ar    1  UNL1       -0.0219
     10 C         142.4600  139.5581  168.1753 C.ar    1  UNL1       -0.0045
     11 C         141.4817  139.6734  167.0441 C.ar    1  UNL1       -0.0032
     12 C         140.0500  140.0228  167.3234 C.ar    1  UNL1       -0.0062
     13 C         139.5966  140.2570  168.7339 C.ar    1  UNL1       -0.0032
     14 C         140.5750  140.1417  169.8651 C.ar    1  UNL1       -0.0045
     15 C         138.8472  145.1625  162.9203 C.3     1  UNL1        0.0897
     16 N         139.2371  145.1325  161.4722 N.am    1  UNL1       -0.3009
     17 C         140.6740  144.9420  161.0862 C.2     1  UNL1        0.2459
     18 O         141.7209  144.7814  162.1483 O.2     1  UNL1       -0.2701
     19 H         138.5499  145.2380  160.7751 H       1  UNL1        0.1497
     20 C         141.0639  144.9120  159.6380 C.ar    1  UNL1        0.0550
     21 C         142.1676  144.0068  159.1771 C.ar    1  UNL1        0.0160
     22 C         142.5576  143.9768  157.7290 C.ar    1  UNL1        0.0587
     23 CL        143.6613  143.0716  157.2681 Cl      1  UNL1       -0.0822
     24 C         141.8439  144.8521  156.7419 C.ar    1  UNL1        0.0228
     25 C         140.7402  145.7573  157.2028 C.ar    1  UNL1        0.0587
     26 CL        140.0265  146.6326  156.2155 Cl      1  UNL1       -0.0822
     27 C         140.3502  145.7873  158.6509 C.ar    1  UNL1        0.0160
@<TRIPOS>BOND
     1     8     9    1
     2     9    10   ar
     3    10    11   ar
     4    11    12   ar
     5    12     7    1
     6     7     1    1
     7     1     2    1
     8     2     3    1
     9     3     4    1
    10     4    15    1
    11    15    16    1
    12    16    17   am
    13    17    18    2
    14    17    20    1
    15    20    21   ar
    16    21    22   ar
    17    22    23    1
    18    22    24   ar
    19    24    25   ar
    20    25    26    1
    21    25    27   ar
    22     4     5    1
    23     5     6    1
    24    12    13   ar
    25    13    14   ar
    26    14     9   ar
    27     6     1    1
    28    27    20   ar
    29    16    19    1
@<TRIPOS>MOLECULE
*****
 27 29 0 0 0
SMALL
GASTEIGER

@<TRIPOS>ATOM
      1 N         144.1692  139.4133  162.0806 N.3     1  UNL1       -0.2690
      2 C         143.7666  138.0157  161.7135 C.3     1  UNL1        0.0724
      3 C         143.1772  137.7353  160.3630 C.3     1  UNL1        0.0191
      4 C         142.9904  138.8524  159.3795 C.3     1  UNL1        0.0224
      5 C         143.3930  140.2499  159.7466 C.3     1  UNL1        0.0191
      6 C         143.9824  140.5304  161.0971 C.3     1  UNL1        0.0724
      7 C         144.7587  139.6938  163.4311 C.3     1  UNL1        0.0991
      8 C         141.1882  140.1098  168.2351 C.3     1  UNL1        0.0310
      9 C         142.0808  140.0058  167.0341 C.ar    1  UNL1       -0.0219
     10 C         142.9684  138.8091  166.8607 C.ar    1  UNL1       -0.0045
     11 C         143.8610  138.7051  165.6597 C.ar    1  UNL1       -0.0032
     12 C         143.8660  139.7978  164.6321 C.ar    1  UNL1       -0.0062
     13 C         142.9785  140.9945  164.8055 C.ar    1  UNL1       -0.0032
     14 C         142.0859  141.0985  166.0065 C.ar    1  UNL1       -0.0045
     15 C         142.4009  138.5719  158.0290 C.3     1  UNL1        0.0897
     16 N         142.3592  137.1667  157.5060 N.am    1  UNL1       -0.3009
     17 C         143.3257  136.7326  156.4442 C.2     1  UNL1        0.2459
     18 O         144.3339  137.7038  155.9053 O.2     1  UNL1       -0.2701
     19 H         141.6975  136.5293  157.8597 H       1  UNL1        0.1497
     20 C         143.2840  135.3273  155.9212 C.ar    1  UNL1        0.0550
     21 C         143.9241  134.2175  156.7013 C.ar    1  UNL1        0.0160
     22 C         143.8824  132.8123  156.1783 C.ar    1  UNL1        0.0587
     23 CL        144.5225  131.7024  156.9584 Cl      1  UNL1       -0.0822
     24 C         143.2007  132.5169  154.8753 C.ar    1  UNL1        0.0228
     25 C         142.5607  133.6267  154.0952 C.ar    1  UNL1        0.0587
     26 CL        141.8789  133.3313  152.7921 Cl      1  UNL1       -0.0822
     27 C         142.6023  135.0320  154.6181 C.ar    1  UNL1        0.0160
@<TRIPOS>BOND
     1     8     9    1
     2     9    10   ar
     3    10    11   ar
     4    11    12   ar
     5    12     7    1
     6     7     1    1
     7     1     2    1
     8     2     3    1
     9     3     4    1
    10     4    15    1
    11    15    16    1
    12    16    17   am
    13    17    18    2
    14    17    20    1
    15    20    21   ar
    16    21    22   ar
    17    22    23    1
    18    22    24   ar
    19    24    25   ar
    20    25    26    1
    21    25    27   ar
    22     4     5    1
    23     5     6    1
    24    12    13   ar
    25    13    14   ar
    26    14     9   ar
    27     6     1    1
    28    27    20   ar
    29    16    19    1
@<TRIPOS>MOLECULE
*****
 27 29 0 0 0
SMALL
GASTEIGER

@<TRIPOS>ATOM
      1 N         142.4892  142.5823  164.1886 N.3     1  UNL1       -0.2690
      2 C         141.1700  142.3026  163.5315 C.3     1  UNL1        0.0724
      3 C         140.4197  143.4107  162.8539 C.3     1  UNL1        0.0191
      4 C         140.9885  144.7985  162.8334 C.3     1  UNL1        0.0224
      5 C         142.3075  145.0783  163.4904 C.3     1  UNL1        0.0191
      6 C         143.0579  143.9701  164.1680 C.3     1  UNL1        0.0724
      7 C         143.2395  141.4742  164.8661 C.3     1  UNL1        0.0991
      8 C         142.4306  140.4459  170.7217 C.3     1  UNL1        0.0310
      9 C         142.6329  140.7030  169.2578 C.ar    1  UNL1       -0.0219
     10 C         143.0484  142.0648  168.7859 C.ar    1  UNL1       -0.0045
     11 C         143.2507  142.3218  167.3220 C.ar    1  UNL1       -0.0032
     12 C         143.0373  141.2171  166.3300 C.ar    1  UNL1       -0.0062
     13 C         142.6217  139.8553  166.8019 C.ar    1  UNL1       -0.0032
     14 C         142.4195  139.5983  168.2658 C.ar    1  UNL1       -0.0045
     15 C         140.2381  145.9066  162.1558 C.3     1  UNL1        0.0897
     16 N         139.7088  145.7134  160.7657 N.am    1  UNL1       -0.3009
     17 C         140.6366  145.3050  159.6601 C.2     1  UNL1        0.2459
     18 O         142.0935  145.0897  159.9446 O.2     1  UNL1       -0.2701
     19 H         138.7526  145.8547  160.5789 H       1  UNL1        0.1497
     20 C         140.1074  145.1118  158.2698 C.ar    1  UNL1        0.0550
     21 C         140.1048  146.2580  157.3023 C.ar    1  UNL1        0.0160
     22 C         139.5757  146.0649  155.9121 C.ar    1  UNL1        0.0587
     23 CL        139.5732  147.2112  154.9446 Cl      1  UNL1       -0.0822
     24 C         139.0490  144.7255  155.4895 C.ar    1  UNL1        0.0228
     25 C         139.0516  143.5793  156.4570 C.ar    1  UNL1        0.0587
     26 CL        138.5249  142.2399  156.0343 Cl      1  UNL1       -0.0822
     27 C         139.5807  143.7724  157.8472 C.ar    1  UNL1        0.0160
@<TRIPOS>BOND
     1     8     9    1
     2     9    10   ar
     3    10    11   ar
     4    11    12   ar
     5    12     7    1
     6     7     1    1
     7     1     2    1
     8     2     3    1
     9     3     4    1
    10     4    15    1
    11    15    16    1
    12    16    17   am
    13    17    18    2
    14    17    20    1
    15    20    21   ar
    16    21    22   ar
    17    22    23    1
    18    22    24   ar
    19    24    25   ar
    20    25    26    1
    21    25    27   ar
    22     4     5    1
    23     5     6    1
    24    12    13   ar
    25    13    14   ar
    26    14     9   ar
    27     6     1    1
    28    27    20   ar
    29    16    19    1
