@<TRIPOS>MOLECULE
*****
 33 38 0 0 0
SMALL
GASTEIGER

@<TRIPOS>ATOM
      1 C         139.6843  145.5029  162.7629 C.3     1  UNL1        0.0862
      2 C         141.3914  145.5027  155.1008 C.3     1  UNL1        0.0311
      3 C         141.4486  145.1901  156.5668 C.ar    1  UNL1       -0.0203
      4 C         142.4897  144.2469  157.0924 C.ar    1  UNL1       -0.0027
      5 C         142.5469  143.9343  158.5584 C.ar    1  UNL1        0.0188
      6 C         141.5631  144.5650  159.4987 C.ar    1  UNL1        0.0826
      7 C         140.5219  145.5083  158.9730 C.ar    1  UNL1        0.0983
      8 C         140.4647  145.8208  157.5071 C.ar    1  UNL1        0.0164
      9 N         139.6914  145.9745  160.1318 N.ar    1  UNL1       -0.2306
     10 C         140.2192  145.3193  161.3737 C.ar    1  UNL1        0.1259
     11 N         141.3760  144.4482  160.9824 N.ar    1  UNL1       -0.2935
     12 C         142.2008  143.6078  161.9116 C.ar    1  UNL1        0.0682
     13 C         143.4284  144.1835  162.5531 C.ar    1  UNL1        0.0382
     14 C         144.2532  143.3431  163.4823 C.ar    1  UNL1        0.1004
     15 N         143.8506  141.9271  163.7700 N.ar    1  UNL1       -0.2422
     16 C         142.6230  141.3514  163.1284 C.ar    1  UNL1        0.1004
     17 C         141.7981  142.1918  162.1992 C.ar    1  UNL1        0.0382
     18 C         138.4698  144.7420  163.2056 C.3     1  UNL1        0.1094
     19 N         138.5435  143.2558  163.3945 N.am    1  UNL1       -0.2224
     20 C         139.0078  142.6882  164.7030 C.2     1  UNL1        0.2550
     21 O         139.3985  143.6068  165.8226 O.2     1  UNL1       -0.2695
     22 C         139.0815  141.2019  164.8919 C.ar    1  UNL1        0.0541
     23 C         139.5459  140.6343  166.2004 C.ar    1  UNL1        0.0045
     24 C         139.6196  139.1481  166.3893 C.ar    1  UNL1        0.0001
     25 C         139.2289  138.2295  165.2697 C.ar    1  UNL1        0.0000
     26 C         138.7645  138.7971  163.9612 C.ar    1  UNL1        0.0003
     27 C         138.3738  137.8785  162.8416 C.ar    1  UNL1        0.0000
     28 C         137.9095  138.4460  161.5331 C.ar    1  UNL1        0.0001
     29 C         137.8358  139.9323  161.3442 C.ar    1  UNL1        0.0045
     30 C         138.2264  140.8509  162.4638 C.ar    1  UNL1        0.0541
     31 C         138.6908  140.2833  163.7723 C.ar    1  UNL1        0.0088
     32 C         138.1528  142.3371  162.2749 C.2     1  UNL1        0.2550
     33 O         137.6884  142.9048  160.9664 O.2     1  UNL1       -0.2695
@<TRIPOS>BOND
     1     2     3    1
     2     3     4   ar
     3     4     5   ar
     4     5     6   ar
     5     6     7   ar
     6     7     8   ar
     7     7     9   ar
     8     9    10   ar
     9    10     1    1
    10     1    18    1
    11    18    19    1
    12    19    20   am
    13    20    21    2
    14    20    22    1
    15    22    23   ar
    16    23    24   ar
    17    24    25   ar
    18    25    26   ar
    19    26    27   ar
    20    27    28   ar
    21    28    29   ar
    22    29    30   ar
    23    30    31   ar
    24    30    32    1
    25    32    33    2
    26    10    11   ar
    27    11    12    1
    28    12    13   ar
    29    13    14   ar
    30    14    15   ar
    31    15    16   ar
    32    16    17   ar
    33     8     3   ar
    34    32    19   am
    35    17    12   ar
    36    11     6   ar
    37    31    22   ar
    38    31    26   ar
@<TRIPOS>MOLECULE
*****
 33 38 0 0 0
SMALL
GASTEIGER

@<TRIPOS>ATOM
      1 C         139.7123  145.4843  162.7634 C.3     1  UNL1        0.0862
      2 C         141.5066  145.4037  155.1217 C.3     1  UNL1        0.0311
      3 C         141.5473  145.1069  156.5914 C.ar    1  UNL1       -0.0203
      4 C         142.5831  144.1702  157.1389 C.ar    1  UNL1       -0.0027
      5 C         142.6238  143.8733  158.6087 C.ar    1  UNL1        0.0188
      6 C         141.6288  144.5132  159.5310 C.ar    1  UNL1        0.0826
      7 C         140.5931  145.4499  158.9834 C.ar    1  UNL1        0.0983
      8 C         140.5523  145.7468  157.5137 C.ar    1  UNL1        0.0164
      9 N         139.7491  145.9277  160.1277 N.ar    1  UNL1       -0.2306
     10 C         140.2632  145.2863  161.3824 C.ar    1  UNL1        0.1259
     11 N         141.4249  144.4121  161.0136 N.ar    1  UNL1       -0.2935
     12 C         142.2398  143.5824  161.9610 C.ar    1  UNL1        0.0682
     13 C         141.8143  142.1816  162.2877 C.ar    1  UNL1        0.0382
     14 C         142.6291  141.3520  163.2351 C.ar    1  UNL1        0.1004
     15 N         143.8694  141.9230  163.8560 N.ar    1  UNL1       -0.2422
     16 C         144.2950  143.3238  163.5293 C.ar    1  UNL1        0.1004
     17 C         143.4801  144.1535  162.5819 C.ar    1  UNL1        0.0382
     18 C         138.4975  144.7220  163.2027 C.3     1  UNL1        0.1094
     19 N         138.5737  143.2364  163.3964 N.am    1  UNL1       -0.2224
     20 C         138.1681  142.3135  162.2857 C.2     1  UNL1        0.2550
     21 O         137.6862  142.8760  160.9813 O.2     1  UNL1       -0.2695
     22 C         138.2443  140.8279  162.4795 C.ar    1  UNL1        0.0541
     23 C         137.8387  139.9050  161.3688 C.ar    1  UNL1        0.0045
     24 C         137.9149  138.4195  161.5626 C.ar    1  UNL1        0.0001
     25 C         138.3968  137.8570  162.8670 C.ar    1  UNL1        0.0000
     26 C         138.8024  138.7800  163.9776 C.ar    1  UNL1        0.0003
     27 C         139.2842  138.2175  165.2820 C.ar    1  UNL1        0.0000
     28 C         139.6898  139.1405  166.3926 C.ar    1  UNL1        0.0001
     29 C         139.6136  140.6260  166.1989 C.ar    1  UNL1        0.0045
     30 C         139.1317  141.1885  164.8945 C.ar    1  UNL1        0.0541
     31 C         138.7261  140.2655  163.7838 C.ar    1  UNL1        0.0088
     32 C         139.0555  142.6740  164.7008 C.2     1  UNL1        0.2550
     33 O         139.4611  143.5970  165.8114 O.2     1  UNL1       -0.2695
@<TRIPOS>BOND
     1     2     3    1
     2     3     4   ar
     3     4     5   ar
     4     5     6   ar
     5     6     7   ar
     6     7     8   ar
     7     7     9   ar
     8     9    10   ar
     9    10     1    1
    10     1    18    1
    11    18    19    1
    12    19    20   am
    13    20    21    2
    14    20    22    1
    15    22    23   ar
    16    23    24   ar
    17    24    25   ar
    18    25    26   ar
    19    26    27   ar
    20    27    28   ar
    21    28    29   ar
    22    29    30   ar
    23    30    31   ar
    24    30    32    1
    25    32    33    2
    26    10    11   ar
    27    11    12    1
    28    12    13   ar
    29    13    14   ar
    30    14    15   ar
    31    15    16   ar
    32    16    17   ar
    33     8     3   ar
    34    32    19   am
    35    17    12   ar
    36    11     6   ar
    37    31    22   ar
    38    31    26   ar
@<TRIPOS>MOLECULE
*****
 33 38 0 0 0
SMALL
GASTEIGER

@<TRIPOS>ATOM
      1 C         139.0189  144.7736  163.1934 C.3     1  UNL1        0.0862
      2 C         141.5942  145.5006  155.8136 C.3     1  UNL1        0.0311
      3 C         141.1292  144.8836  157.0993 C.ar    1  UNL1       -0.0203
      4 C         141.0364  143.3918  157.2248 C.ar    1  UNL1       -0.0027
      5 C         140.5715  142.7748  158.5106 C.ar    1  UNL1        0.0188
      6 C         140.1994  143.6497  159.6709 C.ar    1  UNL1        0.0826
      7 C         140.2922  145.1416  159.5453 C.ar    1  UNL1        0.0983
      8 C         140.7571  145.7585  158.2596 C.ar    1  UNL1        0.0164
      9 N         139.8613  145.7441  160.8496 N.ar    1  UNL1       -0.2306
     10 C         139.5021  144.6247  161.7812 C.ar    1  UNL1        0.1259
     11 N         139.7111  143.3303  161.0527 N.ar    1  UNL1       -0.2935
     12 C         139.4735  141.9574  161.6085 C.ar    1  UNL1        0.0682
     13 C         140.5773  140.9418  161.5959 C.ar    1  UNL1        0.0382
     14 C         140.3397  139.5690  162.1516 C.ar    1  UNL1        0.1004
     15 N         138.9984  139.2117  162.7200 N.ar    1  UNL1       -0.2422
     16 C         137.8945  140.2273  162.7326 C.ar    1  UNL1        0.1004
     17 C         138.1321  141.6001  162.1769 C.ar    1  UNL1        0.0382
     18 C         139.9961  144.7197  164.3301 C.3     1  UNL1        0.1094
     19 N         140.9840  143.5943  164.4172 N.am    1  UNL1       -0.2224
     20 C         140.5898  142.2984  165.0616 C.2     1  UNL1        0.2550
     21 O         139.2076  142.1279  165.6189 O.2     1  UNL1       -0.2695
     22 C         141.5776  141.1730  165.1487 C.ar    1  UNL1        0.0541
     23 C         141.1834  139.8771  165.7931 C.ar    1  UNL1        0.0045
     24 C         142.1713  138.7518  165.8801 C.ar    1  UNL1        0.0001
     25 C         143.5534  138.9222  165.3228 C.ar    1  UNL1        0.0000
     26 C         143.9477  140.2181  164.6784 C.ar    1  UNL1        0.0003
     27 C         145.3298  140.3886  164.1210 C.ar    1  UNL1        0.0000
     28 C         145.7241  141.6844  163.4766 C.ar    1  UNL1        0.0001
     29 C         144.7362  142.8099  163.3895 C.ar    1  UNL1        0.0045
     30 C         143.3540  142.6394  163.9469 C.ar    1  UNL1        0.0541
     31 C         142.9598  141.3434  164.5913 C.ar    1  UNL1        0.0088
     32 C         142.3662  143.7647  163.8598 C.2     1  UNL1        0.2550
     33 O         142.7604  145.0607  163.2154 O.2     1  UNL1       -0.2695
@<TRIPOS>BOND
     1     2     3    1
     2     3     4   ar
     3     4     5   ar
     4     5     6   ar
     5     6     7   ar
     6     7     8   ar
     7     7     9   ar
     8     9    10   ar
     9    10     1    1
    10     1    18    1
    11    18    19    1
    12    19    20   am
    13    20    21    2
    14    20    22    1
    15    22    23   ar
    16    23    24   ar
    17    24    25   ar
    18    25    26   ar
    19    26    27   ar
    20    27    28   ar
    21    28    29   ar
    22    29    30   ar
    23    30    31   ar
    24    30    32    1
    25    32    33    2
    26    10    11   ar
    27    11    12    1
    28    12    13   ar
    29    13    14   ar
    30    14    15   ar
    31    15    16   ar
    32    16    17   ar
    33     8     3   ar
    34    32    19   am
    35    17    12   ar
    36    11     6   ar
    37    31    22   ar
    38    31    26   ar
@<TRIPOS>MOLECULE
*****
 33 38 0 0 0
SMALL
GASTEIGER

@<TRIPOS>ATOM
      1 C         139.0005  144.7996  163.1850 C.3     1  UNL1        0.0862
      2 C         141.5682  145.4757  155.7977 C.3     1  UNL1        0.0311
      3 C         141.1015  144.8677  157.0870 C.ar    1  UNL1       -0.0203
      4 C         140.9993  143.3771  157.2196 C.ar    1  UNL1       -0.0027
      5 C         140.5325  142.7691  158.5090 C.ar    1  UNL1        0.0188
      6 C         140.1680  143.6517  159.6658 C.ar    1  UNL1        0.0826
      7 C         140.2702  145.1424  159.5331 C.ar    1  UNL1        0.0983
      8 C         140.7369  145.7504  158.2438 C.ar    1  UNL1        0.0164
      9 N         139.8453  145.7538  160.8353 N.ar    1  UNL1       -0.2306
     10 C         139.4805  144.6410  161.7727 C.ar    1  UNL1        0.1259
     11 N         139.6799  143.3419  161.0499 N.ar    1  UNL1       -0.2935
     12 C         139.4344  141.9732  161.6124 C.ar    1  UNL1        0.0682
     13 C         138.0913  141.6269  162.1835 C.ar    1  UNL1        0.0382
     14 C         137.8458  140.2583  162.7461 C.ar    1  UNL1        0.1004
     15 N         138.9433  139.2359  162.7375 N.ar    1  UNL1       -0.2422
     16 C         140.2864  139.5821  162.1664 C.ar    1  UNL1        0.1004
     17 C         140.5319  140.9508  161.6039 C.ar    1  UNL1        0.0382
     18 C         139.9792  144.7438  164.3203 C.3     1  UNL1        0.1094
     19 N         140.9639  143.6156  164.4071 N.am    1  UNL1       -0.2224
     20 C         142.3455  143.7813  163.8471 C.2     1  UNL1        0.2550
     21 O         142.7425  145.0752  163.2005 O.2     1  UNL1       -0.2695
     22 C         143.3303  142.6531  163.9339 C.ar    1  UNL1        0.0541
     23 C         144.7119  142.8188  163.3739 C.ar    1  UNL1        0.0045
     24 C         145.6966  141.6906  163.4607 C.ar    1  UNL1        0.0001
     25 C         145.2996  140.3966  164.1074 C.ar    1  UNL1        0.0000
     26 C         143.9179  140.2309  164.6673 C.ar    1  UNL1        0.0003
     27 C         143.5209  138.9370  165.3140 C.ar    1  UNL1        0.0000
     28 C         142.1393  138.7713  165.8739 C.ar    1  UNL1        0.0001
     29 C         141.1545  139.8996  165.7872 C.ar    1  UNL1        0.0045
     30 C         141.5515  141.1935  165.1405 C.ar    1  UNL1        0.0541
     31 C         142.9333  141.3591  164.5805 C.ar    1  UNL1        0.0088
     32 C         140.5669  142.3217  165.0537 C.2     1  UNL1        0.2550
     33 O         139.1852  142.1560  165.6137 O.2     1  UNL1       -0.2695
@<TRIPOS>BOND
     1     2     3    1
     2     3     4   ar
     3     4     5   ar
     4     5     6   ar
     5     6     7   ar
     6     7     8   ar
     7     7     9   ar
     8     9    10   ar
     9    10     1    1
    10     1    18    1
    11    18    19    1
    12    19    20   am
    13    20    21    2
    14    20    22    1
    15    22    23   ar
    16    23    24   ar
    17    24    25   ar
    18    25    26   ar
    19    26    27   ar
    20    27    28   ar
    21    28    29   ar
    22    29    30   ar
    23    30    31   ar
    24    30    32    1
    25    32    33    2
    26    10    11   ar
    27    11    12    1
    28    12    13   ar
    29    13    14   ar
    30    14    15   ar
    31    15    16   ar
    32    16    17   ar
    33     8     3   ar
    34    32    19   am
    35    17    12   ar
    36    11     6   ar
    37    31    22   ar
    38    31    26   ar
@<TRIPOS>MOLECULE
*****
 33 38 0 0 0
SMALL
GASTEIGER

@<TRIPOS>ATOM
      1 C         138.4415  139.3577  164.5400 C.3     1  UNL1        0.0862
      2 C         141.3201  141.4266  171.5439 C.3     1  UNL1        0.0311
      3 C         140.8462  141.5132  170.1234 C.ar    1  UNL1       -0.0203
      4 C         140.8804  142.8268  169.4001 C.ar    1  UNL1       -0.0027
      5 C         140.4064  142.9133  167.9795 C.ar    1  UNL1        0.0188
      6 C         139.8982  141.6863  167.2823 C.ar    1  UNL1        0.0826
      7 C         139.8640  140.3726  168.0058 C.ar    1  UNL1        0.0983
      8 C         140.3380  140.2861  169.4262 C.ar    1  UNL1        0.0164
      9 N         139.3141  139.3405  167.0665 N.ar    1  UNL1       -0.2306
     10 C         139.0085  140.0161  165.7626 C.ar    1  UNL1        0.1259
     11 N         139.3695  141.4659  165.8960 N.ar    1  UNL1       -0.2935
     12 C         139.2269  142.5118  164.8303 C.ar    1  UNL1        0.0682
     13 C         137.8961  142.7403  164.1771 C.ar    1  UNL1        0.0382
     14 C         137.7534  143.7862  163.1114 C.ar    1  UNL1        0.1004
     15 N         138.9415  144.6035  162.6987 N.ar    1  UNL1       -0.2422
     16 C         140.2724  144.3750  163.3519 C.ar    1  UNL1        0.1004
     17 C         140.4151  143.3291  164.4176 C.ar    1  UNL1        0.0382
     18 C         139.3578  138.8747  163.4550 C.3     1  UNL1        0.1094
     19 N         140.5941  139.6535  163.1155 N.am    1  UNL1       -0.2224
     20 C         140.5701  140.6462  161.9914 C.2     1  UNL1        0.2550
     21 O         139.3098  140.8603  161.2066 O.2     1  UNL1       -0.2695
     22 C         141.8064  141.4250  161.6519 C.ar    1  UNL1        0.0541
     23 C         141.7823  142.4177  160.5277 C.ar    1  UNL1        0.0045
     24 C         143.0186  143.1964  160.1882 C.ar    1  UNL1        0.0001
     25 C         144.2789  142.9823  160.9730 C.ar    1  UNL1        0.0000
     26 C         144.3029  141.9896  162.0972 C.ar    1  UNL1        0.0003
     27 C         145.5632  141.7755  162.8819 C.ar    1  UNL1        0.0000
     28 C         145.5873  140.7828  164.0061 C.ar    1  UNL1        0.0001
     29 C         144.3509  140.0040  164.3456 C.ar    1  UNL1        0.0045
     30 C         143.0906  140.2181  163.5609 C.ar    1  UNL1        0.0541
     31 C         143.0667  141.2109  162.4366 C.ar    1  UNL1        0.0088
     32 C         141.8544  139.4394  163.9003 C.2     1  UNL1        0.2550
     33 O         141.8784  138.4466  165.0245 O.2     1  UNL1       -0.2695
@<TRIPOS>BOND
     1     2     3    1
     2     3     4   ar
     3     4     5   ar
     4     5     6   ar
     5     6     7   ar
     6     7     8   ar
     7     7     9   ar
     8     9    10   ar
     9    10     1    1
    10     1    18    1
    11    18    19    1
    12    19    20   am
    13    20    21    2
    14    20    22    1
    15    22    23   ar
    16    23    24   ar
    17    24    25   ar
    18    25    26   ar
    19    26    27   ar
    20    27    28   ar
    21    28    29   ar
    22    29    30   ar
    23    30    31   ar
    24    30    32    1
    25    32    33    2
    26    10    11   ar
    27    11    12    1
    28    12    13   ar
    29    13    14   ar
    30    14    15   ar
    31    15    16   ar
    32    16    17   ar
    33     8     3   ar
    34    32    19   am
    35    17    12   ar
    36    11     6   ar
    37    31    22   ar
    38    31    26   ar
@<TRIPOS>MOLECULE
*****
 33 38 0 0 0
SMALL
GASTEIGER

@<TRIPOS>ATOM
      1 C         138.4736  139.2499  164.4671 C.3     1  UNL1        0.0862
      2 C         141.2578  141.4578  171.4667 C.3     1  UNL1        0.0311
      3 C         140.7946  141.5179  170.0413 C.ar    1  UNL1       -0.0203
      4 C         140.8132  142.8223  169.3010 C.ar    1  UNL1       -0.0027
      5 C         140.3500  142.8824  167.8756 C.ar    1  UNL1        0.0188
      6 C         139.8681  141.6380  167.1905 C.ar    1  UNL1        0.0826
      7 C         139.8495  140.3336  167.9309 C.ar    1  UNL1        0.0983
      8 C         140.3127  140.2735  169.3563 C.ar    1  UNL1        0.0164
      9 N         139.3248  139.2802  167.0008 N.ar    1  UNL1       -0.2306
     10 C         139.0192  139.9336  165.6856 C.ar    1  UNL1        0.1259
     11 N         139.3550  141.3908  165.8029 N.ar    1  UNL1       -0.2935
     12 C         139.2041  142.4201  164.7222 C.ar    1  UNL1        0.0682
     13 C         140.3817  143.2529  164.3101 C.ar    1  UNL1        0.0382
     14 C         140.2308  144.2822  163.2295 C.ar    1  UNL1        0.1004
     15 N         138.9025  144.4788  162.5610 N.ar    1  UNL1       -0.2422
     16 C         137.7249  143.6460  162.9731 C.ar    1  UNL1        0.1004
     17 C         137.8758  142.6167  164.0537 C.ar    1  UNL1        0.0382
     18 C         139.4071  138.7656  163.3976 C.3     1  UNL1        0.1094
     19 N         140.6333  139.5595  163.0566 N.am    1  UNL1       -0.2224
     20 C         141.8912  139.3758  163.8528 C.2     1  UNL1        0.2550
     21 O         141.9229  138.3982  164.9900 O.2     1  UNL1       -0.2695
     22 C         143.1174  140.1697  163.5117 C.ar    1  UNL1        0.0541
     23 C         144.3753  139.9860  164.3079 C.ar    1  UNL1        0.0045
     24 C         145.6014  140.7798  163.9668 C.ar    1  UNL1        0.0001
     25 C         145.5696  141.7574  162.8296 C.ar    1  UNL1        0.0000
     26 C         144.3118  141.9411  162.0334 C.ar    1  UNL1        0.0003
     27 C         144.2800  142.9186  160.8961 C.ar    1  UNL1        0.0000
     28 C         143.0222  143.1023  160.0999 C.ar    1  UNL1        0.0001
     29 C         141.7959  142.3084  160.4409 C.ar    1  UNL1        0.0045
     30 C         141.8277  141.3309  161.5782 C.ar    1  UNL1        0.0541
     31 C         143.0857  141.1472  162.3744 C.ar    1  UNL1        0.0088
     32 C         140.6016  140.5370  161.9193 C.2     1  UNL1        0.2550
     33 O         139.3436  140.7207  161.1231 O.2     1  UNL1       -0.2695
@<TRIPOS>BOND
     1     2     3    1
     2     3     4   ar
     3     4     5   ar
     4     5     6   ar
     5     6     7   ar
     6     7     8   ar
     7     7     9   ar
     8     9    10   ar
     9    10     1    1
    10     1    18    1
    11    18    19    1
    12    19    20   am
    13    20    21    2
    14    20    22    1
    15    22    23   ar
    16    23    24   ar
    17    24    25   ar
    18    25    26   ar
    19    26    27   ar
    20    27    28   ar
    21    28    29   ar
    22    29    30   ar
    23    30    31   ar
    24    30    32    1
    25    32    33    2
    26    10    11   ar
    27    11    12    1
    28    12    13   ar
    29    13    14   ar
    30    14    15   ar
    31    15    16   ar
    32    16    17   ar
    33     8     3   ar
    34    32    19   am
    35    17    12   ar
    36    11     6   ar
    37    31    22   ar
    38    31    26   ar
@<TRIPOS>MOLECULE
*****
 33 38 0 0 0
SMALL
GASTEIGER

@<TRIPOS>ATOM
      1 C         138.5375  138.1916  162.5368 C.3     1  UNL1        0.0862
      2 C         139.7193  140.3746  169.9839 C.3     1  UNL1        0.0311
      3 C         139.9729  140.0768  168.5358 C.ar    1  UNL1       -0.0203
      4 C         141.3395  140.2886  167.9548 C.ar    1  UNL1       -0.0027
      5 C         141.5932  139.9908  166.5067 C.ar    1  UNL1        0.0188
      6 C         140.4802  139.4811  165.6396 C.ar    1  UNL1        0.0826
      7 C         139.1137  139.2693  166.2208 C.ar    1  UNL1        0.0983
      8 C         138.8600  139.5671  167.6688 C.ar    1  UNL1        0.0164
      9 N         138.2196  138.7604  165.1291 N.ar    1  UNL1       -0.2306
     10 C         139.0336  138.6578  163.8734 C.ar    1  UNL1        0.1259
     11 N         140.4307  139.1032  164.1889 N.ar    1  UNL1       -0.2935
     12 C         141.5771  139.1606  163.2232 C.ar    1  UNL1        0.0682
     13 C         142.2481  140.4703  162.9328 C.ar    1  UNL1        0.0382
     14 C         143.3945  140.5277  161.9671 C.ar    1  UNL1        0.1004
     15 N         143.8699  139.2756  161.2919 N.ar    1  UNL1       -0.2422
     16 C         143.1989  137.9658  161.5824 C.ar    1  UNL1        0.1004
     17 C         142.0525  137.9083  162.5480 C.ar    1  UNL1        0.0382
     18 C         137.9378  139.1741  161.5750 C.3     1  UNL1        0.1094
     19 N         138.5936  140.5053  161.3563 N.am    1  UNL1       -0.2224
     20 C         138.1263  141.7067  162.1232 C.2     1  UNL1        0.2550
     21 O         137.0031  141.5770  163.1089 O.2     1  UNL1       -0.2695
     22 C         138.7821  143.0380  161.9044 C.ar    1  UNL1        0.0541
     23 C         138.3148  144.2393  162.6714 C.ar    1  UNL1        0.0045
     24 C         138.9706  145.5705  162.4526 C.ar    1  UNL1        0.0001
     25 C         140.0938  145.7002  161.4669 C.ar    1  UNL1        0.0000
     26 C         140.5611  144.4989  160.7000 C.ar    1  UNL1        0.0003
     27 C         141.6843  144.6286  159.7143 C.ar    1  UNL1        0.0000
     28 C         142.1517  143.4272  158.9473 C.ar    1  UNL1        0.0001
     29 C         141.4958  142.0960  159.1661 C.ar    1  UNL1        0.0045
     30 C         140.3727  141.9662  160.1518 C.ar    1  UNL1        0.0541
     31 C         139.9053  143.1677  160.9187 C.ar    1  UNL1        0.0088
     32 C         139.7168  140.6351  160.3706 C.2     1  UNL1        0.2550
     33 O         140.1842  139.4336  159.6036 O.2     1  UNL1       -0.2695
@<TRIPOS>BOND
     1     2     3    1
     2     3     4   ar
     3     4     5   ar
     4     5     6   ar
     5     6     7   ar
     6     7     8   ar
     7     7     9   ar
     8     9    10   ar
     9    10     1    1
    10     1    18    1
    11    18    19    1
    12    19    20   am
    13    20    21    2
    14    20    22    1
    15    22    23   ar
    16    23    24   ar
    17    24    25   ar
    18    25    26   ar
    19    26    27   ar
    20    27    28   ar
    21    28    29   ar
    22    29    30   ar
    23    30    31   ar
    24    30    32    1
    25    32    33    2
    26    10    11   ar
    27    11    12    1
    28    12    13   ar
    29    13    14   ar
    30    14    15   ar
    31    15    16   ar
    32    16    17   ar
    33     8     3   ar
    34    32    19   am
    35    17    12   ar
    36    11     6   ar
    37    31    22   ar
    38    31    26   ar
@<TRIPOS>MOLECULE
*****
 33 38 0 0 0
SMALL
GASTEIGER

@<TRIPOS>ATOM
      1 C         138.5585  138.1357  162.5745 C.3     1  UNL1        0.0862
      2 C         139.6637  140.4124  170.0053 C.3     1  UNL1        0.0311
      3 C         139.9307  140.1022  168.5622 C.ar    1  UNL1       -0.0203
      4 C         141.2984  140.3245  167.9880 C.ar    1  UNL1       -0.0027
      5 C         141.5654  140.0143  166.5448 C.ar    1  UNL1        0.0188
      6 C         140.4646  139.4819  165.6760 C.ar    1  UNL1        0.0826
      7 C         139.0968  139.2596  166.2504 C.ar    1  UNL1        0.0983
      8 C         138.8299  139.5698  167.6935 C.ar    1  UNL1        0.0164
      9 N         138.2164  138.7283  165.1584 N.ar    1  UNL1       -0.2306
     10 C         139.0399  138.6222  163.9092 C.ar    1  UNL1        0.1259
     11 N         140.4294  139.0879  164.2291 N.ar    1  UNL1       -0.2935
     12 C         141.5815  139.1490  163.2705 C.ar    1  UNL1        0.0682
     13 C         142.0726  137.8963  162.6075 C.ar    1  UNL1        0.0382
     14 C         143.2247  137.9574  161.6489 C.ar    1  UNL1        0.1004
     15 N         143.8857  139.2710  161.3532 N.ar    1  UNL1       -0.2422
     16 C         143.3945  140.5237  162.0162 C.ar    1  UNL1        0.1004
     17 C         142.2425  140.4627  162.9748 C.ar    1  UNL1        0.0382
     18 C         137.9758  139.1046  161.5888 C.3     1  UNL1        0.1094
     19 N         138.6241  140.4407  161.3773 N.am    1  UNL1       -0.2224
     20 C         139.7550  140.5795  160.4018 C.2     1  UNL1        0.2550
     21 O         140.2377  139.3824  159.6377 O.2     1  UNL1       -0.2695
     22 C         140.4034  141.9156  160.1904 C.ar    1  UNL1        0.0541
     23 C         141.5343  142.0545  159.2149 C.ar    1  UNL1        0.0045
     24 C         142.1826  143.3905  159.0035 C.ar    1  UNL1        0.0001
     25 C         141.6999  144.5876  159.7676 C.ar    1  UNL1        0.0000
     26 C         140.5690  144.4488  160.7431 C.ar    1  UNL1        0.0003
     27 C         140.0863  145.6459  161.5072 C.ar    1  UNL1        0.0000
     28 C         138.9554  145.5071  162.4827 C.ar    1  UNL1        0.0001
     29 C         138.3071  144.1710  162.6941 C.ar    1  UNL1        0.0045
     30 C         138.7897  142.9738  161.9300 C.ar    1  UNL1        0.0541
     31 C         139.9207  143.1128  160.9545 C.ar    1  UNL1        0.0088
     32 C         138.1414  141.6378  162.1414 C.2     1  UNL1        0.2550
     33 O         137.0104  141.4989  163.1170 O.2     1  UNL1       -0.2695
@<TRIPOS>BOND
     1     2     3    1
     2     3     4   ar
     3     4     5   ar
     4     5     6   ar
     5     6     7   ar
     6     7     8   ar
     7     7     9   ar
     8     9    10   ar
     9    10     1    1
    10     1    18    1
    11    18    19    1
    12    19    20   am
    13    20    21    2
    14    20    22    1
    15    22    23   ar
    16    23    24   ar
    17    24    25   ar
    18    25    26   ar
    19    26    27   ar
    20    27    28   ar
    21    28    29   ar
    22    29    30   ar
    23    30    31   ar
    24    30    32    1
    25    32    33    2
    26    10    11   ar
    27    11    12    1
    28    12    13   ar
    29    13    14   ar
    30    14    15   ar
    31    15    16   ar
    32    16    17   ar
    33     8     3   ar
    34    32    19   am
    35    17    12   ar
    36    11     6   ar
    37    31    22   ar
    38    31    26   ar
@<TRIPOS>MOLECULE
*****
 33 38 0 0 0
SMALL
GASTEIGER

@<TRIPOS>ATOM
      1 C         143.6867  144.3944  163.9739 C.3     1  UNL1        0.0862
      2 C         141.7170  139.5088  169.7940 C.3     1  UNL1        0.0311
      3 C         141.6200  140.3609  168.5633 C.ar    1  UNL1       -0.0203
      4 C         140.3255  140.4466  167.8106 C.ar    1  UNL1       -0.0027
      5 C         140.2284  141.2986  166.5798 C.ar    1  UNL1        0.0188
      6 C         141.4261  142.0650  166.1019 C.ar    1  UNL1        0.0826
      7 C         142.7207  141.9793  166.8548 C.ar    1  UNL1        0.0983
      8 C         142.8176  141.1272  168.0854 C.ar    1  UNL1        0.0164
      9 N         143.7251  142.8414  166.1492 N.ar    1  UNL1       -0.2306
     10 C         143.0512  143.4600  164.9603 C.ar    1  UNL1        0.1259
     11 N         141.6304  142.9801  164.9311 N.ar    1  UNL1       -0.2935
     12 C         140.5955  143.3503  163.9104 C.ar    1  UNL1        0.0682
     13 C         140.0791  144.7569  163.8421 C.ar    1  UNL1        0.0382
     14 C         139.0442  145.1272  162.8213 C.ar    1  UNL1        0.1004
     15 N         138.5257  144.0909  161.8689 N.ar    1  UNL1       -0.2422
     16 C         139.0421  142.6842  161.9371 C.ar    1  UNL1        0.1004
     17 C         140.0770  142.3140  162.9579 C.ar    1  UNL1        0.0382
     18 C         144.4575  143.8454  162.8101 C.3     1  UNL1        0.1094
     19 N         143.8906  142.7174  162.0000 N.am    1  UNL1       -0.2224
     20 C         144.2961  141.3039  162.2956 C.2     1  UNL1        0.2550
     21 O         145.2686  141.0183  163.4014 O.2     1  UNL1       -0.2695
     22 C         143.7292  140.1758  161.4855 C.ar    1  UNL1        0.0541
     23 C         144.1348  138.7623  161.7812 C.ar    1  UNL1        0.0045
     24 C         143.5678  137.6344  160.9710 C.ar    1  UNL1        0.0001
     25 C         142.5954  137.9200  159.8652 C.ar    1  UNL1        0.0000
     26 C         142.1899  139.3335  159.5696 C.ar    1  UNL1        0.0003
     27 C         141.2174  139.6191  158.4638 C.ar    1  UNL1        0.0000
     28 C         140.8119  141.0326  158.1681 C.ar    1  UNL1        0.0001
     29 C         141.3788  142.1606  158.9782 C.ar    1  UNL1        0.0045
     30 C         142.3513  141.8751  160.0840 C.ar    1  UNL1        0.0541
     31 C         142.7568  140.4614  160.3797 C.ar    1  UNL1        0.0088
     32 C         142.9182  143.0030  160.8942 C.2     1  UNL1        0.2550
     33 O         142.5126  144.4166  160.5985 O.2     1  UNL1       -0.2695
@<TRIPOS>BOND
     1     2     3    1
     2     3     4   ar
     3     4     5   ar
     4     5     6   ar
     5     6     7   ar
     6     7     8   ar
     7     7     9   ar
     8     9    10   ar
     9    10     1    1
    10     1    18    1
    11    18    19    1
    12    19    20   am
    13    20    21    2
    14    20    22    1
    15    22    23   ar
    16    23    24   ar
    17    24    25   ar
    18    25    26   ar
    19    26    27   ar
    20    27    28   ar
    21    28    29   ar
    22    29    30   ar
    23    30    31   ar
    24    30    32    1
    25    32    33    2
    26    10    11   ar
    27    11    12    1
    28    12    13   ar
    29    13    14   ar
    30    14    15   ar
    31    15    16   ar
    32    16    17   ar
    33     8     3   ar
    34    32    19   am
    35    17    12   ar
    36    11     6   ar
    37    31    22   ar
    38    31    26   ar
