@<TRIPOS>MOLECULE
*****
 30 33 0 0 0
SMALL
GASTEIGER

@<TRIPOS>ATOM
      1 C         142.0211  143.8883  162.0778 C.3     1  UNL1        0.1751
      2 C         142.1060  144.0308  160.5869 C.ar    1  UNL1        0.0089
      3 C         142.9936  143.3833  159.5657 C.ar    1  UNL1       -0.0021
      4 C         142.8441  143.7304  158.1142 C.ar    1  UNL1       -0.0003
      5 C         141.8070  144.7250  157.6838 C.ar    1  UNL1        0.0001
      6 C         140.9194  145.3725  158.7050 C.ar    1  UNL1        0.0043
      7 C         141.0689  145.0254  160.1566 C.ar    1  UNL1        0.0516
      8 C         140.3431  145.4976  161.3814 C.2     1  UNL1        0.2493
      9 O         139.2251  146.4971  161.4133 O.2     1  UNL1       -0.2699
     10 N         140.9316  144.7949  162.5688 N.am    1  UNL1       -0.2657
     11 O         144.2770  143.4054  163.2726 O.2     1  UNL1       -0.2729
     12 C         142.8758  142.9960  162.9282 C.2     1  UNL1        0.2451
     13 N         142.3291  141.6940  163.4343 N.am    1  UNL1       -0.2988
     14 H         141.4094  141.4252  163.2083 H       1  UNL1        0.1498
     15 C         143.1837  140.8016  164.2848 C.3     1  UNL1        0.1164
     16 C         143.0340  140.8200  165.7772 C.ar    1  UNL1       -0.0025
     17 C         142.7887  139.5414  166.5222 C.ar    1  UNL1       -0.0021
     18 C         142.6390  139.5599  168.0146 C.ar    1  UNL1        0.0064
     19 C         142.7346  140.8569  168.7620 C.ar    1  UNL1        0.0345
     20 BR        142.5850  140.8753  170.2544 Br      1  UNL1       -0.0490
     21 C         142.9800  142.1355  168.0170 C.ar    1  UNL1        0.0064
     22 C         143.1297  142.1170  166.5245 C.ar    1  UNL1       -0.0021
     23 C         140.5055  144.9683  163.9965 C.3     1  UNL1        0.1007
     24 C         139.1647  144.4673  164.4451 C.3     1  UNL1        0.0673
     25 C         138.9149  142.9927  164.5593 C.ar    1  UNL1        0.0607
     26 C         139.5361  142.2112  165.6789 C.ar    1  UNL1        0.0148
     27 C         139.2862  140.7366  165.7931 C.ar    1  UNL1        0.0028
     28 C         138.4152  140.0434  164.7877 C.ar    1  UNL1        0.0207
     29 C         137.7941  140.8248  163.6681 C.ar    1  UNL1        0.0984
     30 N         138.0439  142.2995  163.5539 N.ar    1  UNL1       -0.2481
@<TRIPOS>BOND
     1    11    12    2
     2    12    13   am
     3    13    15    1
     4    15    16    1
     5    16    17   ar
     6    17    18   ar
     7    18    19   ar
     8    19    20    1
     9    19    21   ar
    10    21    22   ar
    11    12     1    1
    12     1     2    1
    13     2     3   ar
    14     3     4   ar
    15     4     5   ar
    16     5     6   ar
    17     6     7   ar
    18     7     8    1
    19     8     9    2
    20     8    10   am
    21    10    23    1
    22    23    24    1
    23    24    25    1
    24    25    26   ar
    25    26    27   ar
    26    27    28   ar
    27    28    29   ar
    28    29    30   ar
    29    22    16   ar
    30    10     1    1
    31    30    25   ar
    32     7     2   ar
    33    13    14    1
@<TRIPOS>MOLECULE
*****
 30 33 0 0 0
SMALL
GASTEIGER

@<TRIPOS>ATOM
      1 C         141.3441  141.1836  166.7473 C.3     1  UNL1        0.1751
      2 C         141.6890  141.5526  168.1597 C.ar    1  UNL1        0.0089
      3 C         142.7936  142.3864  168.7381 C.ar    1  UNL1       -0.0021
      4 C         142.8864  142.5831  170.2222 C.ar    1  UNL1       -0.0003
      5 C         141.8746  141.9461  171.1280 C.ar    1  UNL1        0.0001
      6 C         140.7700  141.1123  170.5496 C.ar    1  UNL1        0.0043
      7 C         140.6772  140.9156  169.0655 C.ar    1  UNL1        0.0516
      8 C         139.7070  140.1529  168.2128 C.2     1  UNL1        0.2493
      9 O         138.5311  139.3631  168.7063 O.2     1  UNL1       -0.2699
     10 N         140.1192  140.3185  166.7801 N.am    1  UNL1       -0.2657
     11 O         143.0241  140.6449  164.8401 O.2     1  UNL1       -0.2729
     12 C         142.0928  141.6056  165.5180 C.2     1  UNL1        0.2451
     13 N         141.9102  142.9886  164.9664 N.am    1  UNL1       -0.2988
     14 H         141.2990  143.6193  165.4112 H       1  UNL1        0.1498
     15 C         142.6589  143.4107  163.7370 C.3     1  UNL1        0.1164
     16 C         141.9631  143.4405  162.4085 C.ar    1  UNL1       -0.0025
     17 C         141.6803  144.7527  161.7392 C.ar    1  UNL1       -0.0021
     18 C         140.9845  144.7824  160.4107 C.ar    1  UNL1        0.0064
     19 C         140.5714  143.4999  159.7514 C.ar    1  UNL1        0.0345
     20 BR        139.8756  143.5297  158.4229 Br      1  UNL1       -0.0490
     21 C         140.8542  142.1876  160.4207 C.ar    1  UNL1        0.0064
     22 C         141.5501  142.1579  161.7493 C.ar    1  UNL1       -0.0021
     23 C         139.4278  139.7235  165.5893 C.3     1  UNL1        0.1007
     24 C         138.1516  140.3280  165.0835 C.3     1  UNL1        0.0673
     25 C         138.1799  141.6381  164.3537 C.ar    1  UNL1        0.0607
     26 C         137.7496  141.7065  162.9183 C.ar    1  UNL1        0.0148
     27 C         137.7779  143.0167  162.1885 C.ar    1  UNL1        0.0028
     28 C         138.2364  144.2585  162.8941 C.ar    1  UNL1        0.0207
     29 C         138.6667  144.1901  164.3294 C.ar    1  UNL1        0.0984
     30 N         138.6384  142.8799  165.0592 N.ar    1  UNL1       -0.2481
@<TRIPOS>BOND
     1    11    12    2
     2    12    13   am
     3    13    15    1
     4    15    16    1
     5    16    17   ar
     6    17    18   ar
     7    18    19   ar
     8    19    20    1
     9    19    21   ar
    10    21    22   ar
    11    12     1    1
    12     1     2    1
    13     2     3   ar
    14     3     4   ar
    15     4     5   ar
    16     5     6   ar
    17     6     7   ar
    18     7     8    1
    19     8     9    2
    20     8    10   am
    21    10    23    1
    22    23    24    1
    23    24    25    1
    24    25    26   ar
    25    26    27   ar
    26    27    28   ar
    27    28    29   ar
    28    29    30   ar
    29    22    16   ar
    30    10     1    1
    31    30    25   ar
    32     7     2   ar
    33    13    14    1
@<TRIPOS>MOLECULE
*****
 30 33 0 0 0
SMALL
GASTEIGER

@<TRIPOS>ATOM
      1 C         141.0110  141.1775  166.6788 C.3     1  UNL1        0.1751
      2 C         141.0901  141.1762  168.1768 C.ar    1  UNL1        0.0089
      3 C         140.3858  141.9923  169.2198 C.ar    1  UNL1       -0.0021
      4 C         140.6751  141.7625  170.6735 C.ar    1  UNL1       -0.0003
      5 C         141.6687  140.7165  171.0843 C.ar    1  UNL1        0.0001
      6 C         142.3730  139.9004  170.0413 C.ar    1  UNL1        0.0043
      7 C         142.0837  140.1302  168.5875 C.ar    1  UNL1        0.0516
      8 C         142.6186  139.4851  167.3435 C.2     1  UNL1        0.2493
      9 O         143.6377  138.3858  167.2887 O.2     1  UNL1       -0.2699
     10 N         141.9557  140.1324  166.1638 N.am    1  UNL1       -0.2657
     11 O         138.7797  141.6008  165.4171 O.2     1  UNL1       -0.2729
     12 C         140.1401  142.0677  165.8428 C.2     1  UNL1        0.2451
     13 N         140.6296  143.4250  165.4323 N.am    1  UNL1       -0.2988
     14 H         141.5225  143.7315  165.7117 H       1  UNL1        0.1498
     15 C         139.7586  144.3151  164.5962 C.3     1  UNL1        0.1164
     16 C         139.9012  144.3158  163.1030 C.ar    1  UNL1       -0.0025
     17 C         139.7504  143.0364  162.3347 C.ar    1  UNL1       -0.0021
     18 C         139.8929  143.0371  160.8415 C.ar    1  UNL1        0.0064
     19 C         140.1862  144.3171  160.1165 C.ar    1  UNL1        0.0345
     20 BR        140.3287  144.3177  158.6234 Br      1  UNL1       -0.0490
     21 C         140.3370  145.5965  160.8849 C.ar    1  UNL1        0.0064
     22 C         140.1945  145.5958  162.3782 C.ar    1  UNL1       -0.0021
     23 C         142.1953  139.7939  164.7223 C.3     1  UNL1        0.1007
     24 C         143.4123  140.3198  164.0207 C.3     1  UNL1        0.0673
     25 C         143.5192  141.7808  163.6978 C.ar    1  UNL1        0.0607
     26 C         143.3449  142.2512  162.2841 C.ar    1  UNL1        0.0148
     27 C         143.4518  143.7121  161.9613 C.ar    1  UNL1        0.0028
     28 C         143.7330  144.7026  163.0521 C.ar    1  UNL1        0.0207
     29 C         143.9073  144.2322  164.4657 C.ar    1  UNL1        0.0984
     30 N         143.8004  142.7713  164.7885 N.ar    1  UNL1       -0.2481
@<TRIPOS>BOND
     1    11    12    2
     2    12    13   am
     3    13    15    1
     4    15    16    1
     5    16    17   ar
     6    17    18   ar
     7    18    19   ar
     8    19    20    1
     9    19    21   ar
    10    21    22   ar
    11    12     1    1
    12     1     2    1
    13     2     3   ar
    14     3     4   ar
    15     4     5   ar
    16     5     6   ar
    17     6     7   ar
    18     7     8    1
    19     8     9    2
    20     8    10   am
    21    10    23    1
    22    23    24    1
    23    24    25    1
    24    25    26   ar
    25    26    27   ar
    26    27    28   ar
    27    28    29   ar
    28    29    30   ar
    29    22    16   ar
    30    10     1    1
    31    30    25   ar
    32     7     2   ar
    33    13    14    1
@<TRIPOS>MOLECULE
*****
 30 33 0 0 0
SMALL
GASTEIGER

@<TRIPOS>ATOM
      1 C         141.6715  141.4300  166.8643 C.3     1  UNL1        0.1751
      2 C         141.2499  141.8556  168.2395 C.ar    1  UNL1        0.0089
      3 C         140.4617  143.0347  168.7278 C.ar    1  UNL1       -0.0021
      4 C         140.1909  143.2007  170.1937 C.ar    1  UNL1       -0.0003
      5 C         140.7082  142.1876  171.1714 C.ar    1  UNL1        0.0001
      6 C         141.4964  141.0084  170.6832 C.ar    1  UNL1        0.0043
      7 C         141.7672  140.8425  169.2172 C.ar    1  UNL1        0.0516
      8 C         142.5086  139.7908  168.4463 C.2     1  UNL1        0.2493
      9 O         143.1895  138.5872  169.0275 O.2     1  UNL1       -0.2699
     10 N         142.4494  140.1539  166.9921 N.am    1  UNL1       -0.2657
     11 O         142.4291  142.9816  164.9230 O.2     1  UNL1       -0.2729
     12 C         141.3684  142.1536  165.5858 C.2     1  UNL1        0.2451
     13 N         140.0045  142.0493  164.9701 N.am    1  UNL1       -0.2988
     14 H         139.3083  141.5059  165.4051 H       1  UNL1        0.1498
     15 C         139.7014  142.7729  163.6916 C.3     1  UNL1        0.1164
     16 C         139.6443  142.0168  162.3974 C.ar    1  UNL1       -0.0025
     17 C         138.3329  141.8343  161.6926 C.ar    1  UNL1       -0.0021
     18 C         138.2758  141.0782  160.3984 C.ar    1  UNL1        0.0064
     19 C         139.5302  140.5045  159.8089 C.ar    1  UNL1        0.0345
     20 BR        139.4731  139.7484  158.5147 Br      1  UNL1       -0.0490
     21 C         140.8417  140.6870  160.5137 C.ar    1  UNL1        0.0064
     22 C         140.8987  141.4432  161.8080 C.ar    1  UNL1       -0.0021
     23 C         143.0609  139.3773  165.8638 C.3     1  UNL1        0.1007
     24 C         142.4079  138.1162  165.3809 C.3     1  UNL1        0.0673
     25 C         141.1528  138.1874  164.5625 C.ar    1  UNL1        0.0607
     26 C         141.1417  137.6589  163.1587 C.ar    1  UNL1        0.0148
     27 C         139.8866  137.7301  162.3404 C.ar    1  UNL1        0.0028
     28 C         138.6425  138.3298  162.9259 C.ar    1  UNL1        0.0207
     29 C         138.6536  138.8583  164.3296 C.ar    1  UNL1        0.0984
     30 N         139.9088  138.7871  165.1480 N.ar    1  UNL1       -0.2481
@<TRIPOS>BOND
     1    11    12    2
     2    12    13   am
     3    13    15    1
     4    15    16    1
     5    16    17   ar
     6    17    18   ar
     7    18    19   ar
     8    19    20    1
     9    19    21   ar
    10    21    22   ar
    11    12     1    1
    12     1     2    1
    13     2     3   ar
    14     3     4   ar
    15     4     5   ar
    16     5     6   ar
    17     6     7   ar
    18     7     8    1
    19     8     9    2
    20     8    10   am
    21    10    23    1
    22    23    24    1
    23    24    25    1
    24    25    26   ar
    25    26    27   ar
    26    27    28   ar
    27    28    29   ar
    28    29    30   ar
    29    22    16   ar
    30    10     1    1
    31    30    25   ar
    32     7     2   ar
    33    13    14    1
@<TRIPOS>MOLECULE
*****
 30 33 0 0 0
SMALL
GASTEIGER

@<TRIPOS>ATOM
      1 C         141.8603  140.5873  166.9053 C.3     1  UNL1        0.1751
      2 C         142.0883  141.2788  168.2167 C.ar    1  UNL1        0.0089
      3 C         143.2149  142.1326  168.7186 C.ar    1  UNL1       -0.0021
      4 C         143.1654  142.6996  170.1064 C.ar    1  UNL1       -0.0003
      5 C         141.9894  142.4129  170.9923 C.ar    1  UNL1        0.0001
      6 C         140.8629  141.5591  170.4904 C.ar    1  UNL1        0.0043
      7 C         140.9123  140.9921  169.1026 C.ar    1  UNL1        0.0516
      8 C         139.9575  140.1234  168.3387 C.2     1  UNL1        0.2493
      9 O         138.6469  139.5972  168.8441 O.2     1  UNL1       -0.2699
     10 N         140.5433  139.8731  166.9807 N.am    1  UNL1       -0.2657
     11 O         142.9539  141.8629  164.9238 O.2     1  UNL1       -0.2729
     12 C         142.7866  140.6065  165.7257 C.2     1  UNL1        0.2451
     13 N         143.5457  139.3690  165.3479 N.am    1  UNL1       -0.2988
     14 H         143.4359  138.5443  165.8742 H       1  UNL1        0.1498
     15 C         144.4720  139.3882  164.1682 C.3     1  UNL1        0.1164
     16 C         143.9271  139.1981  162.7837 C.ar    1  UNL1       -0.0025
     17 C         144.3288  140.1360  161.6842 C.ar    1  UNL1       -0.0021
     18 C         143.7838  139.9457  160.2997 C.ar    1  UNL1        0.0064
     19 C         142.8372  138.8176  160.0146 C.ar    1  UNL1        0.0345
     20 BR        142.2923  138.6275  158.6301 Br      1  UNL1       -0.0490
     21 C         142.4354  137.8797  161.1142 C.ar    1  UNL1        0.0064
     22 C         142.9804  138.0699  162.4987 C.ar    1  UNL1       -0.0021
     23 C         139.9215  139.0528  165.8897 C.3     1  UNL1        0.1007
     24 C         138.6246  139.4854  165.2725 C.3     1  UNL1        0.0673
     25 C         138.4495  139.4369  163.7835 C.ar    1  UNL1        0.0607
     26 C         138.9436  138.2514  163.0085 C.ar    1  UNL1        0.0148
     27 C         138.7686  138.2029  161.5196 C.ar    1  UNL1        0.0028
     28 C         138.0994  139.3398  160.8056 C.ar    1  UNL1        0.0207
     29 C         137.6053  140.5252  161.5806 C.ar    1  UNL1        0.0984
     30 N         137.7804  140.5737  163.0696 N.ar    1  UNL1       -0.2481
@<TRIPOS>BOND
     1    11    12    2
     2    12    13   am
     3    13    15    1
     4    15    16    1
     5    16    17   ar
     6    17    18   ar
     7    18    19   ar
     8    19    20    1
     9    19    21   ar
    10    21    22   ar
    11    12     1    1
    12     1     2    1
    13     2     3   ar
    14     3     4   ar
    15     4     5   ar
    16     5     6   ar
    17     6     7   ar
    18     7     8    1
    19     8     9    2
    20     8    10   am
    21    10    23    1
    22    23    24    1
    23    24    25    1
    24    25    26   ar
    25    26    27   ar
    26    27    28   ar
    27    28    29   ar
    28    29    30   ar
    29    22    16   ar
    30    10     1    1
    31    30    25   ar
    32     7     2   ar
    33    13    14    1
@<TRIPOS>MOLECULE
*****
 30 33 0 0 0
SMALL
GASTEIGER

@<TRIPOS>ATOM
      1 C         140.5646  139.9546  166.6479 C.3     1  UNL1        0.1751
      2 C         140.8313  140.3740  168.0632 C.ar    1  UNL1        0.0089
      3 C         140.0637  141.2443  169.0137 C.ar    1  UNL1       -0.0021
      4 C         140.5893  141.4896  170.3970 C.ar    1  UNL1       -0.0003
      5 C         141.8823  140.8646  170.8298 C.ar    1  UNL1        0.0001
      6 C         142.6499  139.9943  169.8794 C.ar    1  UNL1        0.0043
      7 C         142.1244  139.7490  168.4961 C.ar    1  UNL1        0.0516
      8 C         142.6568  138.9433  167.3483 C.2     1  UNL1        0.2493
      9 O         143.9298  138.1499  167.3436 O.2     1  UNL1       -0.2699
     10 N         141.6929  139.0704  166.2061 N.am    1  UNL1       -0.2657
     11 O         138.1591  139.4764  165.7909 O.2     1  UNL1       -0.2729
     12 C         139.3780  140.3500  165.8199 C.2     1  UNL1        0.2451
     13 N         139.4104  141.6191  165.0209 N.am    1  UNL1       -0.2988
     14 H         140.2104  142.1925  165.0399 H       1  UNL1        0.1498
     15 C         138.2238  142.0145  164.1928 C.3     1  UNL1        0.1164
     16 C         138.1887  141.6889  162.7291 C.ar    1  UNL1       -0.0025
     17 C         137.8184  140.3075  162.2766 C.ar    1  UNL1       -0.0021
     18 C         137.7834  139.9820  160.8128 C.ar    1  UNL1        0.0064
     19 C         138.1187  141.0377  159.8014 C.ar    1  UNL1        0.0345
     20 BR        138.0837  140.7121  158.3376 Br      1  UNL1       -0.0490
     21 C         138.4890  142.4191  160.2538 C.ar    1  UNL1        0.0064
     22 C         138.5240  142.7447  161.7177 C.ar    1  UNL1       -0.0021
     23 C         141.8326  138.4263  164.8586 C.3     1  UNL1        0.1007
     24 C         142.2566  139.2457  163.6760 C.3     1  UNL1        0.0673
     25 C         143.1935  140.4023  163.8620 C.ar    1  UNL1        0.0607
     26 C         144.6739  140.1960  163.7354 C.ar    1  UNL1        0.0148
     27 C         145.6109  141.3525  163.9215 C.ar    1  UNL1        0.0028
     28 C         145.0674  142.7153  164.2340 C.ar    1  UNL1        0.0207
     29 C         143.5871  142.9215  164.3605 C.ar    1  UNL1        0.0984
     30 N         142.6501  141.7650  164.1745 N.ar    1  UNL1       -0.2481
@<TRIPOS>BOND
     1    11    12    2
     2    12    13   am
     3    13    15    1
     4    15    16    1
     5    16    17   ar
     6    17    18   ar
     7    18    19   ar
     8    19    20    1
     9    19    21   ar
    10    21    22   ar
    11    12     1    1
    12     1     2    1
    13     2     3   ar
    14     3     4   ar
    15     4     5   ar
    16     5     6   ar
    17     6     7   ar
    18     7     8    1
    19     8     9    2
    20     8    10   am
    21    10    23    1
    22    23    24    1
    23    24    25    1
    24    25    26   ar
    25    26    27   ar
    26    27    28   ar
    27    28    29   ar
    28    29    30   ar
    29    22    16   ar
    30    10     1    1
    31    30    25   ar
    32     7     2   ar
    33    13    14    1
@<TRIPOS>MOLECULE
*****
 30 33 0 0 0
SMALL
GASTEIGER

@<TRIPOS>ATOM
      1 C         141.7742  140.3530  166.7365 C.3     1  UNL1        0.1751
      2 C         141.6692  140.5438  168.2206 C.ar    1  UNL1        0.0089
      3 C         142.6493  141.0439  169.2400 C.ar    1  UNL1       -0.0021
      4 C         142.2528  141.1264  170.6842 C.ar    1  UNL1       -0.0003
      5 C         140.8762  140.7088  171.1091 C.ar    1  UNL1        0.0001
      6 C         139.8961  140.2087  170.0897 C.ar    1  UNL1        0.0043
      7 C         140.2926  140.1262  168.6454 C.ar    1  UNL1        0.0516
      8 C         139.5468  139.6772  167.4239 C.2     1  UNL1        0.2493
      9 O         138.1334  139.1760  167.3884 O.2     1  UNL1       -0.2699
     10 N         140.4624  139.8173  166.2440 N.am    1  UNL1       -0.2657
     11 O         143.5608  142.0287  165.8705 O.2     1  UNL1       -0.2729
     12 C         142.9793  140.6462  165.8929 C.2     1  UNL1        0.2451
     13 N         143.6030  139.5569  165.0715 N.am    1  UNL1       -0.2988
     14 H         143.2214  138.6495  165.0861 H       1  UNL1        0.1498
     15 C         144.8081  139.8502  164.2279 C.3     1  UNL1        0.1164
     16 C         144.6455  140.5156  162.8935 C.ar    1  UNL1       -0.0025
     17 C         143.9996  139.7754  161.7600 C.ar    1  UNL1       -0.0021
     18 C         143.8371  140.4410  160.4256 C.ar    1  UNL1        0.0064
     19 C         144.3203  141.8468  160.2247 C.ar    1  UNL1        0.0345
     20 BR        144.1577  142.5122  158.8903 Br      1  UNL1       -0.0490
     21 C         144.9662  142.5870  161.3582 C.ar    1  UNL1        0.0064
     22 C         145.1288  141.9214  162.6927 C.ar    1  UNL1       -0.0021
     23 C         140.1255  139.4810  164.8216 C.3     1  UNL1        0.1007
     24 C         140.1866  140.5438  163.7649 C.3     1  UNL1        0.0673
     25 C         139.7330  141.9390  164.0773 C.ar    1  UNL1        0.0607
     26 C         140.7261  143.0630  164.1006 C.ar    1  UNL1        0.0148
     27 C         140.2726  144.4582  164.4130 C.ar    1  UNL1        0.0028
     28 C         138.8258  144.7294  164.7022 C.ar    1  UNL1        0.0207
     29 C         137.8328  143.6055  164.6789 C.ar    1  UNL1        0.0984
     30 N         138.2864  142.2103  164.3665 N.ar    1  UNL1       -0.2481
@<TRIPOS>BOND
     1    11    12    2
     2    12    13   am
     3    13    15    1
     4    15    16    1
     5    16    17   ar
     6    17    18   ar
     7    18    19   ar
     8    19    20    1
     9    19    21   ar
    10    21    22   ar
    11    12     1    1
    12     1     2    1
    13     2     3   ar
    14     3     4   ar
    15     4     5   ar
    16     5     6   ar
    17     6     7   ar
    18     7     8    1
    19     8     9    2
    20     8    10   am
    21    10    23    1
    22    23    24    1
    23    24    25    1
    24    25    26   ar
    25    26    27   ar
    26    27    28   ar
    27    28    29   ar
    28    29    30   ar
    29    22    16   ar
    30    10     1    1
    31    30    25   ar
    32     7     2   ar
    33    13    14    1
@<TRIPOS>MOLECULE
*****
 30 33 0 0 0
SMALL
GASTEIGER

@<TRIPOS>ATOM
      1 C         141.9627  137.6589  157.9281 C.3     1  UNL1        0.1751
      2 C         142.2969  136.6997  156.8243 C.ar    1  UNL1        0.0089
      3 C         143.5595  135.9673  156.4790 C.ar    1  UNL1       -0.0021
      4 C         143.5957  135.0545  155.2893 C.ar    1  UNL1       -0.0003
      5 C         142.3691  134.8742  154.4449 C.ar    1  UNL1        0.0001
      6 C         141.1065  135.6066  154.7901 C.ar    1  UNL1        0.0043
      7 C         141.0704  136.5194  155.9798 C.ar    1  UNL1        0.0516
      8 C         139.9782  137.3670  156.5618 C.2     1  UNL1        0.2493
      9 O         138.5800  137.4890  156.0325 O.2     1  UNL1       -0.2699
     10 N         140.5297  138.0713  157.7659 N.am    1  UNL1       -0.2657
     11 O         143.8325  139.2674  158.7444 O.2     1  UNL1       -0.2729
     12 C         142.8975  138.1239  159.0051 C.2     1  UNL1        0.2451
     13 N         142.8973  137.4454  160.3429 N.am    1  UNL1       -0.2988
     14 H         142.2836  136.6948  160.5141 H       1  UNL1        0.1498
     15 C         143.8321  137.9104  161.4199 C.3     1  UNL1        0.1164
     16 C         143.2890  138.3380  162.7511 C.ar    1  UNL1       -0.0025
     17 C         144.0285  139.3524  163.5721 C.ar    1  UNL1       -0.0021
     18 C         143.4854  139.7800  164.9034 C.ar    1  UNL1        0.0064
     19 C         142.2026  139.1932  165.4136 C.ar    1  UNL1        0.0345
     20 BR        141.6595  139.6208  166.7448 Br      1  UNL1       -0.0490
     21 C         141.4631  138.1788  164.5926 C.ar    1  UNL1        0.0064
     22 C         142.0063  137.7512  163.2613 C.ar    1  UNL1       -0.0021
     23 C         139.7798  139.0212  158.6521 C.3     1  UNL1        0.1007
     24 C         139.3571  138.5906  160.0254 C.3     1  UNL1        0.0673
     25 C         139.5334  139.5192  161.1901 C.ar    1  UNL1        0.0607
     26 C         140.6798  140.4865  161.2113 C.ar    1  UNL1        0.0148
     27 C         140.8561  141.4151  162.3760 C.ar    1  UNL1        0.0028
     28 C         139.8860  141.3765  163.5195 C.ar    1  UNL1        0.0207
     29 C         138.7397  140.4094  163.4982 C.ar    1  UNL1        0.0984
     30 N         138.5634  139.4807  162.3335 N.ar    1  UNL1       -0.2481
@<TRIPOS>BOND
     1    11    12    2
     2    12    13   am
     3    13    15    1
     4    15    16    1
     5    16    17   ar
     6    17    18   ar
     7    18    19   ar
     8    19    20    1
     9    19    21   ar
    10    21    22   ar
    11    12     1    1
    12     1     2    1
    13     2     3   ar
    14     3     4   ar
    15     4     5   ar
    16     5     6   ar
    17     6     7   ar
    18     7     8    1
    19     8     9    2
    20     8    10   am
    21    10    23    1
    22    23    24    1
    23    24    25    1
    24    25    26   ar
    25    26    27   ar
    26    27    28   ar
    27    28    29   ar
    28    29    30   ar
    29    22    16   ar
    30    10     1    1
    31    30    25   ar
    32     7     2   ar
    33    13    14    1
@<TRIPOS>MOLECULE
*****
 30 33 0 0 0
SMALL
GASTEIGER

@<TRIPOS>ATOM
      1 C         140.6281  140.7237  166.3395 C.3     1  UNL1        0.1751
      2 C         140.4242  140.7431  167.8254 C.ar    1  UNL1        0.0089
      3 C         139.3619  140.1469  168.7006 C.ar    1  UNL1       -0.0021
      4 C         139.4216  140.3362  170.1874 C.ar    1  UNL1       -0.0003
      5 C         140.5436  141.1218  170.7990 C.ar    1  UNL1        0.0001
      6 C         141.6059  141.7179  169.9238 C.ar    1  UNL1        0.0043
      7 C         141.5462  141.5286  168.4370 C.ar    1  UNL1        0.0516
      8 C         142.4434  141.9947  167.3290 C.2     1  UNL1        0.2493
      9 O         143.6894  142.8144  167.4893 O.2     1  UNL1       -0.2699
     10 N         141.8760  141.4973  166.0327 N.am    1  UNL1       -0.2657
     11 O         138.3529  140.5667  165.0949 O.2     1  UNL1       -0.2729
     12 C         139.7398  140.0492  165.3364 C.2     1  UNL1        0.2451
     13 N         140.2387  138.8570  164.5748 N.am    1  UNL1       -0.2988
     14 H         141.1490  138.5173  164.7332 H       1  UNL1        0.1498
     15 C         139.3505  138.1825  163.5717 C.3     1  UNL1        0.1164
     16 C         139.0951  138.8283  162.2422 C.ar    1  UNL1       -0.0025
     17 C         137.6900  139.1307  161.8128 C.ar    1  UNL1       -0.0021
     18 C         137.4347  139.7765  160.4832 C.ar    1  UNL1        0.0064
     19 C         138.5844  140.1199  159.5829 C.ar    1  UNL1        0.0345
     20 BR        138.3290  140.7656  158.2534 Br      1  UNL1       -0.0490
     21 C         139.9895  139.8174  160.0124 C.ar    1  UNL1        0.0064
     22 C         140.2448  139.1716  161.3420 C.ar    1  UNL1       -0.0021
     23 C         142.4549  141.7322  164.6689 C.3     1  UNL1        0.1007
     24 C         142.0283  142.9270  163.8687 C.3     1  UNL1        0.0673
     25 C         140.5697  143.2056  163.6564 C.ar    1  UNL1        0.0607
     26 C         139.8329  144.1067  164.6026 C.ar    1  UNL1        0.0148
     27 C         138.3743  144.3853  164.3903 C.ar    1  UNL1        0.0028
     28 C         137.6527  143.7628  163.2320 C.ar    1  UNL1        0.0207
     29 C         138.3895  142.8618  162.2859 C.ar    1  UNL1        0.0984
     30 N         139.8481  142.5832  162.4981 N.ar    1  UNL1       -0.2481
@<TRIPOS>BOND
     1    11    12    2
     2    12    13   am
     3    13    15    1
     4    15    16    1
     5    16    17   ar
     6    17    18   ar
     7    18    19   ar
     8    19    20    1
     9    19    21   ar
    10    21    22   ar
    11    12     1    1
    12     1     2    1
    13     2     3   ar
    14     3     4   ar
    15     4     5   ar
    16     5     6   ar
    17     6     7   ar
    18     7     8    1
    19     8     9    2
    20     8    10   am
    21    10    23    1
    22    23    24    1
    23    24    25    1
    24    25    26   ar
    25    26    27   ar
    26    27    28   ar
    27    28    29   ar
    28    29    30   ar
    29    22    16   ar
    30    10     1    1
    31    30    25   ar
    32     7     2   ar
    33    13    14    1
