@<TRIPOS>MOLECULE
*****
 27 28 0 0 0
SMALL
GASTEIGER

@<TRIPOS>ATOM
      1 N         141.1629  139.8116  168.5890 N.3     1  UNL1       -0.2707
      2 C         140.0886  140.0302  167.5653 C.3     1  UNL1        0.0722
      3 C         140.4045  139.8924  166.1055 C.3     1  UNL1        0.0191
      4 C         141.7947  139.5359  165.6693 C.3     1  UNL1        0.0224
      5 C         142.8690  139.3172  166.6930 C.3     1  UNL1        0.0191
      6 C         142.5531  139.4551  168.1529 C.3     1  UNL1        0.0722
      7 C         140.8470  139.9494  170.0489 C.3     1  UNL1        0.1016
      8 C         141.3359  141.1444  170.8125 C.3     1  UNL1        0.1263
      9 O         142.1679  140.9570  172.0465 O.3     1  UNL1       -0.3830
     10 H         142.3986  141.8238  172.4156 H       1  UNL1        0.2104
     11 C         139.5358  142.2347  170.5465 C.3     1  UNL1        0.0025
     12 C         140.9928  142.5268  170.3421 C.3     1  UNL1        0.0261
     13 C         142.4498  142.8188  170.1376 C.3     1  UNL1        0.0025
     14 C         140.6497  143.9092  169.8717 C.3     1  UNL1        0.0025
     15 C         142.1105  139.3980  164.2094 C.3     1  UNL1        0.0897
     16 N         141.4886  140.3340  163.2159 N.am    1  UNL1       -0.3009
     17 C         142.0526  141.7111  163.0278 C.2     1  UNL1        0.2459
     18 O         143.2386  142.1523  163.8332 O.2     1  UNL1       -0.2701
     19 H         140.7102  140.0444  162.6872 H       1  UNL1        0.1497
     20 C         141.4307  142.6470  162.0341 C.ar    1  UNL1        0.0550
     21 C         141.2738  142.2256  160.6032 C.ar    1  UNL1        0.0160
     22 C         140.6518  143.1616  159.6095 C.ar    1  UNL1        0.0587
     23 CL        140.4949  142.7402  158.1786 Cl      1  UNL1       -0.0822
     24 C         140.1867  144.5189  160.0470 C.ar    1  UNL1        0.0228
     25 C         140.3436  144.9403  161.4781 C.ar    1  UNL1        0.0587
     26 CL        139.8786  146.2976  161.9155 Cl      1  UNL1       -0.0822
     27 C         140.9656  144.0044  162.4716 C.ar    1  UNL1        0.0160
@<TRIPOS>BOND
     1    11    12    1
     2    12    13    1
     3    12    14    1
     4    12     8    1
     5     8     9    1
     6     8     7    1
     7     7     1    1
     8     1     2    1
     9     2     3    1
    10     3     4    1
    11     4    15    1
    12    15    16    1
    13    16    17   am
    14    17    18    2
    15    17    20    1
    16    20    21   ar
    17    21    22   ar
    18    22    23    1
    19    22    24   ar
    20    24    25   ar
    21    25    26    1
    22    25    27   ar
    23     4     5    1
    24     5     6    1
    25     6     1    1
    26    27    20   ar
    27     9    10    1
    28    16    19    1
@<TRIPOS>MOLECULE
*****
 27 28 0 0 0
SMALL
GASTEIGER

@<TRIPOS>ATOM
      1 N         140.2576  139.8623  168.8118 N.3     1  UNL1       -0.2707
      2 C         138.9405  139.6623  168.1224 C.3     1  UNL1        0.0722
      3 C         138.8941  139.4679  166.6357 C.3     1  UNL1        0.0191
      4 C         140.1647  139.4736  165.8386 C.3     1  UNL1        0.0224
      5 C         141.4817  139.6737  166.5280 C.3     1  UNL1        0.0191
      6 C         141.5281  139.8680  168.0146 C.3     1  UNL1        0.0722
      7 C         140.3040  140.0567  170.2985 C.3     1  UNL1        0.1016
      8 C         141.1394  141.1555  170.8854 C.3     1  UNL1        0.1263
      9 O         142.1738  140.8380  171.9243 O.3     1  UNL1       -0.3830
     10 H         142.6208  141.6549  172.1958 H       1  UNL1        0.2104
     11 C         142.4090  142.6881  170.1512 C.3     1  UNL1        0.0025
     12 C         140.9405  142.5719  170.4336 C.3     1  UNL1        0.0261
     13 C         139.4719  142.4558  170.7160 C.3     1  UNL1        0.0025
     14 C         140.7415  143.9884  169.9818 C.3     1  UNL1        0.0025
     15 C         140.1182  139.2793  164.3519 C.3     1  UNL1        0.0897
     16 N         140.6134  140.3609  163.4383 N.am    1  UNL1       -0.3009
     17 C         139.8354  141.6353  163.2941 C.2     1  UNL1        0.2459
     18 O         138.5624  141.8280  164.0636 O.2     1  UNL1       -0.2701
     19 H         141.4489  140.2345  162.9333 H       1  UNL1        0.1497
     20 C         140.3306  142.7170  162.3804 C.ar    1  UNL1        0.0550
     21 C         139.6994  144.0772  162.4173 C.ar    1  UNL1        0.0160
     22 C         140.1946  145.1589  161.5037 C.ar    1  UNL1        0.0587
     23 CL        139.5634  146.5191  161.5406 Cl      1  UNL1       -0.0822
     24 C         141.3210  144.8804  160.5531 C.ar    1  UNL1        0.0228
     25 C         141.9523  143.5201  160.5162 C.ar    1  UNL1        0.0587
     26 CL        143.0787  143.2415  159.5657 Cl      1  UNL1       -0.0822
     27 C         141.4571  142.4385  161.4299 C.ar    1  UNL1        0.0160
@<TRIPOS>BOND
     1    11    12    1
     2    12    13    1
     3    12    14    1
     4    12     8    1
     5     8     9    1
     6     8     7    1
     7     7     1    1
     8     1     2    1
     9     2     3    1
    10     3     4    1
    11     4    15    1
    12    15    16    1
    13    16    17   am
    14    17    18    2
    15    17    20    1
    16    20    21   ar
    17    21    22   ar
    18    22    23    1
    19    22    24   ar
    20    24    25   ar
    21    25    26    1
    22    25    27   ar
    23     4     5    1
    24     5     6    1
    25     6     1    1
    26    27    20   ar
    27     9    10    1
    28    16    19    1
@<TRIPOS>MOLECULE
*****
 27 28 0 0 0
SMALL
GASTEIGER

@<TRIPOS>ATOM
      1 N         138.6246  140.8939  163.0481 N.3     1  UNL1       -0.2707
      2 C         140.0763  141.2255  162.8681 C.3     1  UNL1        0.0722
      3 C         140.4817  142.5958  162.4120 C.3     1  UNL1        0.0191
      4 C         139.4353  143.6345  162.1359 C.3     1  UNL1        0.0224
      5 C         137.9836  143.3029  162.3159 C.3     1  UNL1        0.0191
      6 C         137.5782  141.9326  162.7720 C.3     1  UNL1        0.0722
      7 C         138.2192  139.5237  163.5042 C.3     1  UNL1        0.1016
      8 C         138.9196  138.3142  162.9596 C.3     1  UNL1        0.1263
      9 O         138.5056  137.7396  161.6372 O.3     1  UNL1       -0.3830
     10 H         139.0552  136.9666  161.4343 H       1  UNL1        0.2104
     11 C         140.8788  137.6444  162.4984 C.3     1  UNL1        0.0025
     12 C         140.0340  137.6792  163.7374 C.3     1  UNL1        0.0261
     13 C         139.1892  137.7140  164.9763 C.3     1  UNL1        0.0025
     14 C         141.1484  137.0442  164.5151 C.3     1  UNL1        0.0025
     15 C         139.8407  145.0048  161.6798 C.3     1  UNL1        0.0897
     16 N         139.8260  145.3438  160.2188 N.am    1  UNL1       -0.3009
     17 C         141.0517  145.1178  159.3840 C.2     1  UNL1        0.2459
     18 O         142.2920  144.5528  160.0104 O.2     1  UNL1       -0.2701
     19 H         139.0120  145.7146  159.8076 H       1  UNL1        0.1497
     20 C         141.0369  145.4569  157.9229 C.ar    1  UNL1        0.0550
     21 C         142.1052  144.9194  157.0174 C.ar    1  UNL1        0.0160
     22 C         142.0905  145.2585  155.5563 C.ar    1  UNL1        0.0587
     23 CL        143.1588  144.7211  154.6508 Cl      1  UNL1       -0.0822
     24 C         141.0075  146.1351  155.0007 C.ar    1  UNL1        0.0228
     25 C         139.9391  146.6725  155.9062 C.ar    1  UNL1        0.0587
     26 CL        138.8561  147.5491  155.3506 Cl      1  UNL1       -0.0822
     27 C         139.9539  146.3334  157.3673 C.ar    1  UNL1        0.0160
@<TRIPOS>BOND
     1    11    12    1
     2    12    13    1
     3    12    14    1
     4    12     8    1
     5     8     9    1
     6     8     7    1
     7     7     1    1
     8     1     2    1
     9     2     3    1
    10     3     4    1
    11     4    15    1
    12    15    16    1
    13    16    17   am
    14    17    18    2
    15    17    20    1
    16    20    21   ar
    17    21    22   ar
    18    22    23    1
    19    22    24   ar
    20    24    25   ar
    21    25    26    1
    22    25    27   ar
    23     4     5    1
    24     5     6    1
    25     6     1    1
    26    27    20   ar
    27     9    10    1
    28    16    19    1
@<TRIPOS>MOLECULE
*****
 27 28 0 0 0
SMALL
GASTEIGER

@<TRIPOS>ATOM
      1 N         138.6045  140.8622  163.1293 N.3     1  UNL1       -0.2707
      2 C         137.6300  141.7628  162.4301 C.3     1  UNL1        0.0722
      3 C         138.0645  143.1210  161.9648 C.3     1  UNL1        0.0191
      4 C         139.4737  143.5786  162.1988 C.3     1  UNL1        0.0224
      5 C         140.4483  142.6780  162.8980 C.3     1  UNL1        0.0191
      6 C         140.0137  141.3198  163.3633 C.3     1  UNL1        0.0722
      7 C         138.1699  139.5040  163.5946 C.3     1  UNL1        0.1016
      8 C         138.8314  138.2755  163.0441 C.3     1  UNL1        0.1263
      9 O         138.3138  137.6451  161.7852 O.3     1  UNL1       -0.3830
     10 H         138.8502  136.8662  161.5694 H       1  UNL1        0.2104
     11 C         140.7924  137.7026  162.4726 C.3     1  UNL1        0.0025
     12 C         140.0105  137.6772  163.7525 C.3     1  UNL1        0.0261
     13 C         139.2287  137.6519  165.0324 C.3     1  UNL1        0.0025
     14 C         141.1896  137.0790  164.4609 C.3     1  UNL1        0.0025
     15 C         139.9083  144.9368  161.7335 C.3     1  UNL1        0.0897
     16 N         139.8790  145.2739  160.2722 N.am    1  UNL1       -0.3009
     17 C         141.1043  145.0713  159.4310 C.2     1  UNL1        0.2459
     18 O         142.3589  144.5316  160.0511 O.2     1  UNL1       -0.2701
     19 H         139.0555  145.6281  159.8652 H       1  UNL1        0.1497
     20 C         141.0749  145.4085  157.9696 C.ar    1  UNL1        0.0550
     21 C         139.9789  146.2734  157.4214 C.ar    1  UNL1        0.0160
     22 C         139.9495  146.6106  155.9600 C.ar    1  UNL1        0.0587
     23 CL        138.8536  147.4756  155.4118 Cl      1  UNL1       -0.0822
     24 C         141.0161  146.0827  155.0470 C.ar    1  UNL1        0.0228
     25 C         142.1121  145.2177  155.5953 C.ar    1  UNL1        0.0587
     26 CL        143.1787  144.6898  154.6822 Cl      1  UNL1       -0.0822
     27 C         142.1415  144.8806  157.0566 C.ar    1  UNL1        0.0160
@<TRIPOS>BOND
     1    11    12    1
     2    12    13    1
     3    12    14    1
     4    12     8    1
     5     8     9    1
     6     8     7    1
     7     7     1    1
     8     1     2    1
     9     2     3    1
    10     3     4    1
    11     4    15    1
    12    15    16    1
    13    16    17   am
    14    17    18    2
    15    17    20    1
    16    20    21   ar
    17    21    22   ar
    18    22    23    1
    19    22    24   ar
    20    24    25   ar
    21    25    26    1
    22    25    27   ar
    23     4     5    1
    24     5     6    1
    25     6     1    1
    26    27    20   ar
    27     9    10    1
    28    16    19    1
@<TRIPOS>MOLECULE
*****
 27 28 0 0 0
SMALL
GASTEIGER

@<TRIPOS>ATOM
      1 N         140.7648  144.9545  159.6322 N.3     1  UNL1       -0.2707
      2 C         141.8749  144.0588  160.0960 C.3     1  UNL1        0.0722
      3 C         142.2481  144.0174  161.5482 C.3     1  UNL1        0.0191
      4 C         141.5112  144.8717  162.5366 C.3     1  UNL1        0.0224
      5 C         140.4010  145.7675  162.0728 C.3     1  UNL1        0.0191
      6 C         140.0278  145.8089  160.6206 C.3     1  UNL1        0.0722
      7 C         140.3916  144.9959  158.1799 C.3     1  UNL1        0.1016
      8 C         141.1871  145.8353  157.2247 C.3     1  UNL1        0.1263
      9 O         142.5378  146.3508  157.6249 O.3     1  UNL1       -0.3830
     10 H         142.9136  146.8715  156.8978 H       1  UNL1        0.2104
     11 C         141.7462  145.3861  155.2283 C.3     1  UNL1        0.0025
     12 C         140.6321  146.1593  155.8694 C.3     1  UNL1        0.0261
     13 C         139.5180  146.9326  156.5104 C.3     1  UNL1        0.0025
     14 C         140.0771  146.4833  154.5140 C.3     1  UNL1        0.0025
     15 C         141.8844  144.8303  163.9889 C.3     1  UNL1        0.0897
     16 N         141.5945  143.6043  164.8031 N.am    1  UNL1       -0.3009
     17 C         140.2608  143.4455  165.4708 C.2     1  UNL1        0.2459
     18 O         139.2169  144.5126  165.3243 O.2     1  UNL1       -0.2701
     19 H         142.2797  142.9040  164.8992 H       1  UNL1        0.1497
     20 C         139.9710  142.2194  166.2850 C.ar    1  UNL1        0.0550
     21 C         140.4269  142.1417  167.7119 C.ar    1  UNL1        0.0160
     22 C         140.1371  140.9156  168.5261 C.ar    1  UNL1        0.0587
     23 CL        140.5930  140.8378  169.9530 Cl      1  UNL1       -0.0822
     24 C         139.3913  139.7674  167.9134 C.ar    1  UNL1        0.0228
     25 C         138.9354  139.8452  166.4864 C.ar    1  UNL1        0.0587
     26 CL        138.1896  138.6970  165.8737 Cl      1  UNL1       -0.0822
     27 C         139.2252  141.0712  165.6723 C.ar    1  UNL1        0.0160
@<TRIPOS>BOND
     1    11    12    1
     2    12    13    1
     3    12    14    1
     4    12     8    1
     5     8     9    1
     6     8     7    1
     7     7     1    1
     8     1     2    1
     9     2     3    1
    10     3     4    1
    11     4    15    1
    12    15    16    1
    13    16    17   am
    14    17    18    2
    15    17    20    1
    16    20    21   ar
    17    21    22   ar
    18    22    23    1
    19    22    24   ar
    20    24    25   ar
    21    25    26    1
    22    25    27   ar
    23     4     5    1
    24     5     6    1
    25     6     1    1
    26    27    20   ar
    27     9    10    1
    28    16    19    1
@<TRIPOS>MOLECULE
*****
 27 28 0 0 0
SMALL
GASTEIGER

@<TRIPOS>ATOM
      1 N         140.9848  144.8003  159.6392 N.3     1  UNL1       -0.2707
      2 C         140.1969  145.6316  160.6078 C.3     1  UNL1        0.0722
      3 C         140.5469  145.6173  162.0663 C.3     1  UNL1        0.0191
      4 C         141.6847  144.7716  162.5563 C.3     1  UNL1        0.0224
      5 C         142.4726  143.9402  161.5878 C.3     1  UNL1        0.0191
      6 C         142.1226  143.9546  160.1292 C.3     1  UNL1        0.0722
      7 C         140.6348  144.8146  158.1807 C.3     1  UNL1        0.1016
      8 C         141.3191  145.7759  157.2546 C.3     1  UNL1        0.1263
      9 O         142.6113  146.4194  157.6625 O.3     1  UNL1       -0.3830
     10 H         142.9167  147.0083  156.9549 H       1  UNL1        0.2104
     11 C         141.8219  145.3519  155.2378 C.3     1  UNL1        0.0025
     12 C         140.7113  146.0938  155.9207 C.3     1  UNL1        0.0261
     13 C         139.6007  146.8357  156.6035 C.3     1  UNL1        0.0025
     14 C         140.1035  146.4117  154.5867 C.3     1  UNL1        0.0025
     15 C         142.0347  144.7572  164.0148 C.3     1  UNL1        0.0897
     16 N         141.7082  143.5567  164.8527 N.am    1  UNL1       -0.3009
     17 C         140.3497  143.4228  165.4744 C.2     1  UNL1        0.2459
     18 O         139.3176  144.4896  165.2582 O.2     1  UNL1       -0.2701
     19 H         142.3857  142.8565  164.9946 H       1  UNL1        0.1497
     20 C         140.0233  142.2222  166.3122 C.ar    1  UNL1        0.0550
     21 C         139.2855  141.0643  165.7083 C.ar    1  UNL1        0.0160
     22 C         138.9591  139.8636  166.5462 C.ar    1  UNL1        0.0587
     23 CL        138.2212  138.7057  165.9422 Cl      1  UNL1       -0.0822
     24 C         139.3706  139.8209  167.9880 C.ar    1  UNL1        0.0228
     25 C         140.1085  140.9789  168.5919 C.ar    1  UNL1        0.0587
     26 CL        140.5201  140.9362  170.0337 Cl      1  UNL1       -0.0822
     27 C         140.4349  142.1795  167.7540 C.ar    1  UNL1        0.0160
@<TRIPOS>BOND
     1    11    12    1
     2    12    13    1
     3    12    14    1
     4    12     8    1
     5     8     9    1
     6     8     7    1
     7     7     1    1
     8     1     2    1
     9     2     3    1
    10     3     4    1
    11     4    15    1
    12    15    16    1
    13    16    17   am
    14    17    18    2
    15    17    20    1
    16    20    21   ar
    17    21    22   ar
    18    22    23    1
    19    22    24   ar
    20    24    25   ar
    21    25    26    1
    22    25    27   ar
    23     4     5    1
    24     5     6    1
    25     6     1    1
    26    27    20   ar
    27     9    10    1
    28    16    19    1
@<TRIPOS>MOLECULE
*****
 27 28 0 0 0
SMALL
GASTEIGER

@<TRIPOS>ATOM
      1 N         142.4595  136.4144  156.9136 N.3     1  UNL1       -0.2707
      2 C         141.1343  136.4178  156.2110 C.3     1  UNL1        0.0722
      3 C         140.0751  137.4013  156.6122 C.3     1  UNL1        0.0191
      4 C         140.3412  138.3814  157.7161 C.3     1  UNL1        0.0224
      5 C         141.6664  138.3780  158.4187 C.3     1  UNL1        0.0191
      6 C         142.7256  137.3945  158.0175 C.3     1  UNL1        0.0722
      7 C         143.5186  135.4310  156.5124 C.3     1  UNL1        0.1016
      8 C         143.7169  134.1756  157.3091 C.3     1  UNL1        0.1263
      9 O         143.4900  134.1846  158.7919 O.3     1  UNL1       -0.3830
     10 H         143.6606  133.2996  159.1504 H       1  UNL1        0.2104
     11 C         143.3191  133.2840  155.4259 C.3     1  UNL1        0.0025
     12 C         144.1422  132.9113  156.6231 C.3     1  UNL1        0.0261
     13 C         144.9654  132.5386  157.8204 C.3     1  UNL1        0.0025
     14 C         144.5675  131.6469  155.9372 C.3     1  UNL1        0.0025
     15 C         139.2821  139.3649  158.1173 C.3     1  UNL1        0.0897
     16 N         139.2892  139.9537  159.4968 N.am    1  UNL1       -0.3009
     17 C         137.9994  140.1387  160.2400 C.2     1  UNL1        0.2459
     18 O         136.7025  139.7351  159.6035 O.2     1  UNL1       -0.2701
     19 H         140.1404  140.2186  159.9146 H       1  UNL1        0.1497
     20 C         138.0066  140.7275  161.6196 C.ar    1  UNL1        0.0550
     21 C         138.1042  139.8301  162.8175 C.ar    1  UNL1        0.0160
     22 C         138.1113  140.4189  164.1972 C.ar    1  UNL1        0.0587
     23 CL        138.2089  139.5215  165.3951 Cl      1  UNL1       -0.0822
     24 C         138.0209  141.9052  164.3788 C.ar    1  UNL1        0.0228
     25 C         137.9233  142.8026  163.1808 C.ar    1  UNL1        0.0587
     26 CL        137.8329  144.2888  163.3624 Cl      1  UNL1       -0.0822
     27 C         137.9161  142.2138  161.8012 C.ar    1  UNL1        0.0160
@<TRIPOS>BOND
     1    11    12    1
     2    12    13    1
     3    12    14    1
     4    12     8    1
     5     8     9    1
     6     8     7    1
     7     7     1    1
     8     1     2    1
     9     2     3    1
    10     3     4    1
    11     4    15    1
    12    15    16    1
    13    16    17   am
    14    17    18    2
    15    17    20    1
    16    20    21   ar
    17    21    22   ar
    18    22    23    1
    19    22    24   ar
    20    24    25   ar
    21    25    26    1
    22    25    27   ar
    23     4     5    1
    24     5     6    1
    25     6     1    1
    26    27    20   ar
    27     9    10    1
    28    16    19    1
@<TRIPOS>MOLECULE
*****
 27 28 0 0 0
SMALL
GASTEIGER

@<TRIPOS>ATOM
      1 N         140.2051  142.7663  165.0302 N.3     1  UNL1       -0.2707
      2 C         141.4088  143.6368  164.8222 C.3     1  UNL1        0.0722
      3 C         141.3529  144.7729  163.8445 C.3     1  UNL1        0.0191
      4 C         140.0932  145.0386  163.0748 C.3     1  UNL1        0.0224
      5 C         138.8895  144.1682  163.2828 C.3     1  UNL1        0.0191
      6 C         138.9454  143.0320  164.2605 C.3     1  UNL1        0.0722
      7 C         140.2611  141.6301  166.0080 C.3     1  UNL1        0.1016
      8 C         139.9912  140.2289  165.5458 C.3     1  UNL1        0.1263
      9 O         140.8001  139.6387  164.4289 O.3     1  UNL1       -0.3830
     10 H         140.4998  138.7327  164.2559 H       1  UNL1        0.2104
     11 C         139.3851  139.8769  167.5480 C.3     1  UNL1        0.0025
     12 C         138.9125  139.4178  166.2004 C.3     1  UNL1        0.0261
     13 C         138.4400  138.9587  164.8529 C.3     1  UNL1        0.0025
     14 C         137.8338  138.6067  166.8551 C.3     1  UNL1        0.0025
     15 C         140.0372  146.1748  162.0970 C.3     1  UNL1        0.0897
     16 N         139.6319  145.9215  160.6752 N.am    1  UNL1       -0.3009
     17 C         140.6117  145.3199  159.7118 C.2     1  UNL1        0.2459
     18 O         141.9968  144.9717  160.1703 O.2     1  UNL1       -0.2701
     19 H         138.7228  146.1500  160.3743 H       1  UNL1        0.1497
     20 C         140.2064  145.0666  158.2900 C.ar    1  UNL1        0.0550
     21 C         140.1930  146.1947  157.3016 C.ar    1  UNL1        0.0160
     22 C         139.7876  145.9414  155.8797 C.ar    1  UNL1        0.0587
     23 CL        139.7742  147.0696  154.8913 Cl      1  UNL1       -0.0822
     24 C         139.3957  144.5599  155.4464 C.ar    1  UNL1        0.0228
     25 C         139.4091  143.4317  156.4349 C.ar    1  UNL1        0.0587
     26 CL        139.0171  142.0502  156.0016 Cl      1  UNL1       -0.0822
     27 C         139.8144  143.6851  157.8567 C.ar    1  UNL1        0.0160
@<TRIPOS>BOND
     1    11    12    1
     2    12    13    1
     3    12    14    1
     4    12     8    1
     5     8     9    1
     6     8     7    1
     7     7     1    1
     8     1     2    1
     9     2     3    1
    10     3     4    1
    11     4    15    1
    12    15    16    1
    13    16    17   am
    14    17    18    2
    15    17    20    1
    16    20    21   ar
    17    21    22   ar
    18    22    23    1
    19    22    24   ar
    20    24    25   ar
    21    25    26    1
    22    25    27   ar
    23     4     5    1
    24     5     6    1
    25     6     1    1
    26    27    20   ar
    27     9    10    1
    28    16    19    1
@<TRIPOS>MOLECULE
*****
 27 28 0 0 0
SMALL
GASTEIGER

@<TRIPOS>ATOM
      1 N         139.5991  140.0380  167.5853 N.3     1  UNL1       -0.2707
      2 C         138.3292  139.2508  167.4519 C.3     1  UNL1        0.0722
      3 C         138.0896  138.4155  166.2292 C.3     1  UNL1        0.0191
      4 C         139.1198  138.3674  165.1400 C.3     1  UNL1        0.0224
      5 C         140.3896  139.1546  165.2735 C.3     1  UNL1        0.0191
      6 C         140.6292  139.9899  166.4961 C.3     1  UNL1        0.0722
      7 C         139.8387  140.8733  168.8080 C.3     1  UNL1        0.1016
      8 C         140.9144  140.4887  169.7800 C.3     1  UNL1        0.1263
      9 O         140.6912  139.3539  170.7354 O.3     1  UNL1       -0.3830
     10 H         141.4790  139.2380  171.2894 H       1  UNL1        0.2104
     11 C         141.5044  142.4765  169.3326 C.3     1  UNL1        0.0025
     12 C         142.2133  141.2387  169.7968 C.3     1  UNL1        0.0261
     13 C         142.9221  140.0010  170.2610 C.3     1  UNL1        0.0025
     14 C         143.5121  141.9888  169.8136 C.3     1  UNL1        0.0025
     15 C         138.8801  137.5321  163.9174 C.3     1  UNL1        0.0897
     16 N         138.8860  138.1704  162.5600 N.am    1  UNL1       -0.3009
     17 C         140.0877  138.0348  161.6726 C.2     1  UNL1        0.2459
     18 O         141.2835  137.2608  162.1425 O.2     1  UNL1       -0.2701
     19 H         138.1011  138.6784  162.2516 H       1  UNL1        0.1497
     20 C         140.0935  138.6732  160.3152 C.ar    1  UNL1        0.0550
     21 C         138.8761  139.3972  159.8217 C.ar    1  UNL1        0.0160
     22 C         138.8819  140.0356  158.4643 C.ar    1  UNL1        0.0587
     23 CL        137.6645  140.7596  157.9708 Cl      1  UNL1       -0.0822
     24 C         140.1051  139.9498  157.6004 C.ar    1  UNL1        0.0228
     25 C         141.3226  139.2257  158.0939 C.ar    1  UNL1        0.0587
     26 CL        142.5459  139.1400  157.2301 Cl      1  UNL1       -0.0822
     27 C         141.3168  138.5874  159.4513 C.ar    1  UNL1        0.0160
@<TRIPOS>BOND
     1    11    12    1
     2    12    13    1
     3    12    14    1
     4    12     8    1
     5     8     9    1
     6     8     7    1
     7     7     1    1
     8     1     2    1
     9     2     3    1
    10     3     4    1
    11     4    15    1
    12    15    16    1
    13    16    17   am
    14    17    18    2
    15    17    20    1
    16    20    21   ar
    17    21    22   ar
    18    22    23    1
    19    22    24   ar
    20    24    25   ar
    21    25    26    1
    22    25    27   ar
    23     4     5    1
    24     5     6    1
    25     6     1    1
    26    27    20   ar
    27     9    10    1
    28    16    19    1
