@<TRIPOS>MOLECULE
*****
 33 36 0 0 0
SMALL
GASTEIGER

@<TRIPOS>ATOM
      1 N         140.8735  143.7089  159.4033 N.am    1  UNL1       -0.2806
      2 C         140.5213  144.2773  160.7460 C.2     1  UNL1        0.2495
      3 O         139.3374  145.1875  160.8880 O.2     1  UNL1       -0.2698
      4 H         141.6505  143.1115  159.3101 H       1  UNL1        0.1552
      5 C         139.2801  145.7677  156.4079 C.ar    1  UNL1        0.0144
      6 C         140.1118  145.4261  157.6085 C.ar    1  UNL1        0.0155
      7 C         140.0418  144.0505  158.2026 C.ar    1  UNL1        0.0465
      8 C         139.1400  143.0166  157.5960 C.ar    1  UNL1       -0.0087
      9 C         139.0700  141.6410  158.1902 C.3     1  UNL1        0.0323
     10 C         138.3084  143.3582  156.3954 C.ar    1  UNL1       -0.0072
     11 C         138.3784  144.7338  155.8013 C.ar    1  UNL1       -0.0206
     12 C         137.5467  145.0754  154.6006 C.3     1  UNL1        0.0311
     13 C         138.5312  150.9310  155.5951 C.3     1  UNL1        0.0716
     14 C         139.0059  149.5165  155.4402 C.ar    1  UNL1        0.1175
     15 N         139.9100  149.0034  154.3587 N.ar    1  UNL1       -0.2296
     16 C         140.1227  147.5367  154.5896 C.ar    1  UNL1        0.1171
     17 C         139.3502  147.1433  155.8137 C.ar    1  UNL1        0.0766
     18 N         138.6600  148.3669  156.3394 N.ar    1  UNL1       -0.3407
     19 H         138.0814  148.4082  157.1349 H       1  UNL1        0.1671
     20 C         141.3529  143.9357  161.9466 C.ar    1  UNL1        0.0539
     21 C         141.1524  142.6260  162.6499 C.ar    1  UNL1        0.0076
     22 C         141.9841  142.2844  163.8506 C.ar    1  UNL1        0.0371
     23 C         143.0163  143.2525  164.3480 C.ar    1  UNL1        0.1391
     24 C         143.2168  144.5621  163.6448 C.ar    1  UNL1        0.0371
     25 C         142.3852  144.9038  162.4441 C.ar    1  UNL1        0.0076
     26 O         143.8479  142.9108  165.5487 O.3     1  UNL1       -0.4690
     27 C         143.3598  141.8898  166.5332 C.3     1  UNL1        0.2508
     28 C         142.6089  142.3263  167.7562 C.ar    1  UNL1        0.1026
     29 C         141.1167  142.4710  167.7082 C.ar    1  UNL1        0.0185
     30 C         140.3657  142.9075  168.9311 C.ar    1  UNL1        0.0029
     31 C         141.1070  143.1993  170.2020 C.ar    1  UNL1        0.0207
     32 C         142.5993  143.0546  170.2500 C.ar    1  UNL1        0.0986
     33 N         143.3502  142.6181  169.0271 N.ar    1  UNL1       -0.2445
@<TRIPOS>BOND
     1    13    14    1
     2    14    15   ar
     3    15    16   ar
     4    16    17   ar
     5    17     5    1
     6     5     6   ar
     7     6     7   ar
     8     7     1    1
     9     1     2   am
    10     2     3    2
    11     2    20    1
    12    20    21   ar
    13    21    22   ar
    14    22    23   ar
    15    23    26    1
    16    26    27    1
    17    27    28    1
    18    28    29   ar
    19    29    30   ar
    20    30    31   ar
    21    31    32   ar
    22    32    33   ar
    23    23    24   ar
    24    24    25   ar
    25     7     8   ar
    26     8     9    1
    27     8    10   ar
    28    10    11   ar
    29    11    12    1
    30    17    18   ar
    31    18    14   ar
    32    11     5   ar
    33    25    20   ar
    34    33    28   ar
    35     1     4    1
    36    18    19    1
@<TRIPOS>MOLECULE
*****
 33 36 0 0 0
SMALL
GASTEIGER

@<TRIPOS>ATOM
      1 N         141.5364  143.2328  161.6688 N.am    1  UNL1       -0.2806
      2 C         142.3481  143.7917  162.7996 C.2     1  UNL1        0.2495
      3 O         143.4189  144.8056  162.5248 O.2     1  UNL1       -0.2698
      4 H         140.8336  142.5674  161.8491 H       1  UNL1        0.1552
      5 C         143.0252  143.3938  157.9935 C.ar    1  UNL1        0.0144
      6 C         142.7661  142.9387  159.3991 C.ar    1  UNL1        0.0155
      7 C         141.7954  143.6879  160.2631 C.ar    1  UNL1        0.0465
      8 C         141.0838  144.8921  159.7214 C.ar    1  UNL1       -0.0087
      9 C         140.1131  145.6413  160.5854 C.3     1  UNL1        0.0323
     10 C         141.3428  145.3472  158.3158 C.ar    1  UNL1       -0.0072
     11 C         142.3135  144.5980  157.4519 C.ar    1  UNL1       -0.0206
     12 C         142.5726  145.0530  156.0462 C.3     1  UNL1        0.0311
     13 C         147.4884  141.8320  155.6435 C.3     1  UNL1        0.0716
     14 C         146.0474  141.9267  156.0493 C.ar    1  UNL1        0.1175
     15 N         144.9319  141.0567  155.5505 N.ar    1  UNL1       -0.2296
     16 C         143.6641  141.5004  156.2181 C.ar    1  UNL1        0.1171
     17 C         143.9959  142.6446  157.1295 C.ar    1  UNL1        0.0766
     18 N         145.4689  142.9081  157.0252 N.ar    1  UNL1       -0.3407
     19 H         145.9683  143.6031  157.5118 H       1  UNL1        0.1671
     20 C         142.0890  143.3367  164.2052 C.ar    1  UNL1        0.0539
     21 C         143.2024  142.7486  165.0204 C.ar    1  UNL1        0.0076
     22 C         142.9433  142.2936  166.4261 C.ar    1  UNL1        0.0371
     23 C         141.5709  142.4267  167.0165 C.ar    1  UNL1        0.1391
     24 C         140.4575  143.0147  166.2013 C.ar    1  UNL1        0.0371
     25 C         140.7165  143.4697  164.7957 C.ar    1  UNL1        0.0076
     26 O         141.3118  141.9717  168.4222 O.3     1  UNL1       -0.4690
     27 C         140.9334  140.5453  168.6911 C.3     1  UNL1        0.2508
     28 C         140.0995  139.7907  167.6985 C.ar    1  UNL1        0.1026
     29 C         140.6880  139.3833  166.3803 C.ar    1  UNL1        0.0185
     30 C         139.8542  138.6287  165.3878 C.ar    1  UNL1        0.0029
     31 C         138.4317  138.2816  165.7134 C.ar    1  UNL1        0.0207
     32 C         137.8432  138.6890  167.0315 C.ar    1  UNL1        0.0986
     33 N         138.6770  139.4435  168.0241 N.ar    1  UNL1       -0.2445
@<TRIPOS>BOND
     1    13    14    1
     2    14    15   ar
     3    15    16   ar
     4    16    17   ar
     5    17     5    1
     6     5     6   ar
     7     6     7   ar
     8     7     1    1
     9     1     2   am
    10     2     3    2
    11     2    20    1
    12    20    21   ar
    13    21    22   ar
    14    22    23   ar
    15    23    26    1
    16    26    27    1
    17    27    28    1
    18    28    29   ar
    19    29    30   ar
    20    30    31   ar
    21    31    32   ar
    22    32    33   ar
    23    23    24   ar
    24    24    25   ar
    25     7     8   ar
    26     8     9    1
    27     8    10   ar
    28    10    11   ar
    29    11    12    1
    30    17    18   ar
    31    18    14   ar
    32    11     5   ar
    33    25    20   ar
    34    33    28   ar
    35     1     4    1
    36    18    19    1
@<TRIPOS>MOLECULE
*****
 33 36 0 0 0
SMALL
GASTEIGER

@<TRIPOS>ATOM
      1 N         139.2637  139.4020  160.3141 N.am    1  UNL1       -0.2806
      2 C         140.6555  139.3982  159.7548 C.2     1  UNL1        0.2495
      3 O         141.6953  140.3171  160.3245 O.2     1  UNL1       -0.2698
      4 H         138.5813  138.7989  159.9402 H       1  UNL1        0.1552
      5 C         138.6684  140.7725  163.9907 C.ar    1  UNL1        0.0144
      6 C         139.0204  139.8498  162.8618 C.ar    1  UNL1        0.0155
      7 C         138.9117  140.3248  161.4431 C.ar    1  UNL1        0.0465
      8 C         138.4509  141.7225  161.1535 C.ar    1  UNL1       -0.0087
      9 C         138.3421  142.1975  159.7348 C.3     1  UNL1        0.0323
     10 C         138.0988  142.6453  162.2824 C.ar    1  UNL1       -0.0072
     11 C         138.2076  142.1703  163.7010 C.ar    1  UNL1       -0.0206
     12 C         137.8555  143.0931  164.8301 C.3     1  UNL1        0.0311
     13 C         140.2119  140.2756  169.0158 C.3     1  UNL1        0.0716
     14 C         139.4866  140.0691  167.7192 C.ar    1  UNL1        0.1175
     15 N         138.4023  139.0640  167.4658 N.ar    1  UNL1       -0.2296
     16 C         137.9639  139.2052  166.0382 C.ar    1  UNL1        0.1171
     17 C         138.7771  140.2975  165.4094 C.ar    1  UNL1        0.0766
     18 N         139.7182  140.8314  166.4483 N.ar    1  UNL1       -0.3407
     19 H         140.3730  141.5551  166.3187 H       1  UNL1        0.1671
     20 C         141.0076  138.4755  158.6258 C.ar    1  UNL1        0.0539
     21 C         142.4170  137.9871  158.4681 C.ar    1  UNL1        0.0076
     22 C         142.7691  137.0643  157.3390 C.ar    1  UNL1        0.0371
     23 C         141.7117  136.6300  156.3678 C.ar    1  UNL1        0.1391
     24 C         140.3022  137.1184  156.5256 C.ar    1  UNL1        0.0371
     25 C         139.9502  138.0411  157.6545 C.ar    1  UNL1        0.0076
     26 O         142.0638  135.7073  155.2388 O.3     1  UNL1       -0.4690
     27 C         141.8288  134.2321  155.3748 C.3     1  UNL1        0.2508
     28 C         142.9282  133.3401  155.8707 C.ar    1  UNL1        0.1026
     29 C         143.5415  133.5838  157.2177 C.ar    1  UNL1        0.0185
     30 C         144.6408  132.6919  157.7137 C.ar    1  UNL1        0.0029
     31 C         145.1268  131.5563  156.8627 C.ar    1  UNL1        0.0207
     32 C         144.5134  131.3127  155.5156 C.ar    1  UNL1        0.0986
     33 N         143.4141  132.2046  155.0197 N.ar    1  UNL1       -0.2445
@<TRIPOS>BOND
     1    13    14    1
     2    14    15   ar
     3    15    16   ar
     4    16    17   ar
     5    17     5    1
     6     5     6   ar
     7     6     7   ar
     8     7     1    1
     9     1     2   am
    10     2     3    2
    11     2    20    1
    12    20    21   ar
    13    21    22   ar
    14    22    23   ar
    15    23    26    1
    16    26    27    1
    17    27    28    1
    18    28    29   ar
    19    29    30   ar
    20    30    31   ar
    21    31    32   ar
    22    32    33   ar
    23    23    24   ar
    24    24    25   ar
    25     7     8   ar
    26     8     9    1
    27     8    10   ar
    28    10    11   ar
    29    11    12    1
    30    17    18   ar
    31    18    14   ar
    32    11     5   ar
    33    25    20   ar
    34    33    28   ar
    35     1     4    1
    36    18    19    1
@<TRIPOS>MOLECULE
*****
 33 36 0 0 0
SMALL
GASTEIGER

@<TRIPOS>ATOM
      1 N         141.1261  144.0150  159.2706 N.am    1  UNL1       -0.2806
      2 C         140.7338  144.4834  160.6405 C.2     1  UNL1        0.2495
      3 O         139.4585  145.2489  160.8348 O.2     1  UNL1       -0.2698
      4 H         141.9631  143.5126  159.1430 H       1  UNL1        0.1552
      5 C         139.3588  145.9794  156.3096 C.ar    1  UNL1        0.0144
      6 C         140.2418  145.6825  157.4851 C.ar    1  UNL1        0.0155
      7 C         140.2430  144.3120  158.0949 C.ar    1  UNL1        0.0465
      8 C         139.3613  143.2386  157.5291 C.ar    1  UNL1       -0.0087
      9 C         139.3625  141.8681  158.1390 C.3     1  UNL1        0.0323
     10 C         138.4782  143.5355  156.3536 C.ar    1  UNL1       -0.0072
     11 C         138.4770  144.9060  155.7438 C.ar    1  UNL1       -0.0206
     12 C         137.5939  145.2030  154.5681 C.3     1  UNL1        0.0311
     13 C         138.4573  151.1209  155.5133 C.3     1  UNL1        0.0716
     14 C         138.9431  149.7131  155.3337 C.ar    1  UNL1        0.1175
     15 N         139.7680  149.2044  154.1888 N.ar    1  UNL1       -0.2296
     16 C         140.0241  147.7439  154.4150 C.ar    1  UNL1        0.1171
     17 C         139.3575  147.3499  155.6997 C.ar    1  UNL1        0.0766
     18 N         138.6894  148.5670  156.2675 N.ar    1  UNL1       -0.3407
     19 H         138.1748  148.6066  157.1059 H       1  UNL1        0.1671
     20 C         141.6168  144.1865  161.8161 C.ar    1  UNL1        0.0539
     21 C         142.3879  142.9009  161.8691 C.ar    1  UNL1        0.0076
     22 C         143.2709  142.6040  163.0448 C.ar    1  UNL1        0.0371
     23 C         143.3828  143.5925  164.1674 C.ar    1  UNL1        0.1391
     24 C         142.6117  144.8780  164.1144 C.ar    1  UNL1        0.0371
     25 C         141.7287  145.1750  162.9388 C.ar    1  UNL1        0.0076
     26 O         144.2658  143.2955  165.3430 O.3     1  UNL1       -0.4690
     27 C         143.6765  142.7231  166.5980 C.3     1  UNL1        0.2508
     28 C         142.5174  141.7743  166.5173 C.ar    1  UNL1        0.1026
     29 C         141.1204  142.2770  166.7314 C.ar    1  UNL1        0.0185
     30 C         139.9614  141.3283  166.6508 C.ar    1  UNL1        0.0029
     31 C         140.1993  139.8770  166.3560 C.ar    1  UNL1        0.0207
     32 C         141.5962  139.3743  166.1419 C.ar    1  UNL1        0.0986
     33 N         142.7553  140.3229  166.2226 N.ar    1  UNL1       -0.2445
@<TRIPOS>BOND
     1    13    14    1
     2    14    15   ar
     3    15    16   ar
     4    16    17   ar
     5    17     5    1
     6     5     6   ar
     7     6     7   ar
     8     7     1    1
     9     1     2   am
    10     2     3    2
    11     2    20    1
    12    20    21   ar
    13    21    22   ar
    14    22    23   ar
    15    23    26    1
    16    26    27    1
    17    27    28    1
    18    28    29   ar
    19    29    30   ar
    20    30    31   ar
    21    31    32   ar
    22    32    33   ar
    23    23    24   ar
    24    24    25   ar
    25     7     8   ar
    26     8     9    1
    27     8    10   ar
    28    10    11   ar
    29    11    12    1
    30    17    18   ar
    31    18    14   ar
    32    11     5   ar
    33    25    20   ar
    34    33    28   ar
    35     1     4    1
    36    18    19    1
@<TRIPOS>MOLECULE
*****
 33 36 0 0 0
SMALL
GASTEIGER

@<TRIPOS>ATOM
      1 N         134.9668  141.6473  154.6470 N.am    1  UNL1       -0.2806
      2 C         134.6981  140.7819  155.8424 C.2     1  UNL1        0.2495
      3 O         135.8122  140.4411  156.7872 O.2     1  UNL1       -0.2698
      4 H         134.2356  141.8710  154.0269 H       1  UNL1        0.1552
      5 C         138.1616  143.9993  154.7527 C.ar    1  UNL1        0.0144
      6 C         136.7788  143.4748  155.0032 C.ar    1  UNL1        0.0155
      7 C         136.3496  142.1719  154.3965 C.ar    1  UNL1        0.0465
      8 C         137.3032  141.3935  153.5393 C.ar    1  UNL1       -0.0087
      9 C         136.8739  140.0905  152.9326 C.3     1  UNL1        0.0323
     10 C         138.6860  141.9180  153.2888 C.ar    1  UNL1       -0.0072
     11 C         139.1152  143.2209  153.8955 C.ar    1  UNL1       -0.0206
     12 C         140.4980  143.7455  153.6450 C.3     1  UNL1        0.0311
     13 C         138.7110  149.1688  155.6781 C.3     1  UNL1        0.0716
     14 C         138.8434  147.6784  155.7847 C.ar    1  UNL1        0.1175
     15 N         139.6596  146.9363  156.8012 N.ar    1  UNL1       -0.2296
     16 C         139.5035  145.4678  156.5383 C.ar    1  UNL1        0.1171
     17 C         138.5909  145.3023  155.3594 C.ar    1  UNL1        0.0766
     18 N         138.1829  146.6686  154.8937 N.ar    1  UNL1       -0.3407
     19 H         137.5864  146.8676  154.1362 H       1  UNL1        0.1671
     20 C         133.3153  140.2574  156.0929 C.ar    1  UNL1        0.0539
     21 C         132.1231  141.1269  155.8238 C.ar    1  UNL1        0.0076
     22 C         130.7403  140.6023  156.0743 C.ar    1  UNL1        0.0371
     23 C         130.5498  139.2082  156.5940 C.ar    1  UNL1        0.1391
     24 C         131.7420  138.3386  156.8631 C.ar    1  UNL1        0.0371
     25 C         133.1248  138.8632  156.6125 C.ar    1  UNL1        0.0076
     26 O         129.1671  138.6836  156.8445 O.3     1  UNL1       -0.4690
     27 C         128.9613  137.5264  157.7765 C.3     1  UNL1        0.2508
     28 C         128.3566  137.7523  159.1305 C.ar    1  UNL1        0.1026
     29 C         128.3304  139.1316  159.7196 C.ar    1  UNL1        0.0185
     30 C         127.7256  139.3575  161.0735 C.ar    1  UNL1        0.0029
     31 C         127.1471  138.2041  161.8384 C.ar    1  UNL1        0.0207
     32 C         127.1733  136.8249  161.2494 C.ar    1  UNL1        0.0986
     33 N         127.7781  136.5990  159.8954 N.ar    1  UNL1       -0.2445
@<TRIPOS>BOND
     1    13    14    1
     2    14    15   ar
     3    15    16   ar
     4    16    17   ar
     5    17     5    1
     6     5     6   ar
     7     6     7   ar
     8     7     1    1
     9     1     2   am
    10     2     3    2
    11     2    20    1
    12    20    21   ar
    13    21    22   ar
    14    22    23   ar
    15    23    26    1
    16    26    27    1
    17    27    28    1
    18    28    29   ar
    19    29    30   ar
    20    30    31   ar
    21    31    32   ar
    22    32    33   ar
    23    23    24   ar
    24    24    25   ar
    25     7     8   ar
    26     8     9    1
    27     8    10   ar
    28    10    11   ar
    29    11    12    1
    30    17    18   ar
    31    18    14   ar
    32    11     5   ar
    33    25    20   ar
    34    33    28   ar
    35     1     4    1
    36    18    19    1
@<TRIPOS>MOLECULE
*****
 33 36 0 0 0
SMALL
GASTEIGER

@<TRIPOS>ATOM
      1 N         141.1474  142.9795  160.9789 N.am    1  UNL1       -0.2806
      2 C         141.6910  143.7823  162.1235 C.2     1  UNL1        0.2495
      3 O         142.5747  144.9648  161.8573 O.2     1  UNL1       -0.2698
      4 H         140.5674  142.2034  161.1536 H       1  UNL1        0.1552
      5 C         140.9332  144.6709  157.3952 C.ar    1  UNL1        0.0144
      6 C         140.5930  144.2912  158.8059 C.ar    1  UNL1        0.0155
      7 C         141.4875  143.3592  159.5682 C.ar    1  UNL1        0.0465
      8 C         142.7222  142.8069  158.9198 C.ar    1  UNL1       -0.0087
      9 C         143.6168  141.8749  159.6821 C.3     1  UNL1        0.0323
     10 C         143.0624  143.1866  157.5091 C.ar    1  UNL1       -0.0072
     11 C         142.1679  144.1186  156.7468 C.ar    1  UNL1       -0.0206
     12 C         142.5080  144.4983  155.3360 C.3     1  UNL1        0.0311
     13 C         138.8040  149.0642  155.3835 C.3     1  UNL1        0.0716
     14 C         139.0600  147.6223  155.7082 C.ar    1  UNL1        0.1175
     15 N         138.2641  146.4519  155.2112 N.ar    1  UNL1       -0.2296
     16 C         138.8689  145.2039  155.7827 C.ar    1  UNL1        0.1171
     17 C         140.0386  145.6029  156.6328 C.ar    1  UNL1        0.0766
     18 N         140.1566  147.0976  156.5868 N.ar    1  UNL1       -0.3407
     19 H         140.8348  147.6391  157.0516 H       1  UNL1        0.1671
     20 C         141.3509  143.4026  163.5342 C.ar    1  UNL1        0.0539
     21 C         142.4289  142.9319  164.4649 C.ar    1  UNL1        0.0076
     22 C         142.0888  142.5522  165.8757 C.ar    1  UNL1        0.0371
     23 C         140.6706  142.6433  166.3557 C.ar    1  UNL1        0.1391
     24 C         139.5925  143.1140  165.4250 C.ar    1  UNL1        0.0371
     25 C         139.9326  143.4936  164.0143 C.ar    1  UNL1        0.0076
     26 O         140.3305  142.2636  167.7664 O.3     1  UNL1       -0.4690
     27 C         140.3736  140.8244  168.1869 C.3     1  UNL1        0.2508
     28 C         139.7389  139.7723  167.3265 C.ar    1  UNL1        0.1026
     29 C         140.4700  139.2410  166.1293 C.ar    1  UNL1        0.0185
     30 C         139.8353  138.1889  165.2690 C.ar    1  UNL1        0.0029
     31 C         138.4696  137.6681  165.6058 C.ar    1  UNL1        0.0207
     32 C         137.7386  138.1994  166.8030 C.ar    1  UNL1        0.0986
     33 N         138.3732  139.2514  167.6634 N.ar    1  UNL1       -0.2445
@<TRIPOS>BOND
     1    13    14    1
     2    14    15   ar
     3    15    16   ar
     4    16    17   ar
     5    17     5    1
     6     5     6   ar
     7     6     7   ar
     8     7     1    1
     9     1     2   am
    10     2     3    2
    11     2    20    1
    12    20    21   ar
    13    21    22   ar
    14    22    23   ar
    15    23    26    1
    16    26    27    1
    17    27    28    1
    18    28    29   ar
    19    29    30   ar
    20    30    31   ar
    21    31    32   ar
    22    32    33   ar
    23    23    24   ar
    24    24    25   ar
    25     7     8   ar
    26     8     9    1
    27     8    10   ar
    28    10    11   ar
    29    11    12    1
    30    17    18   ar
    31    18    14   ar
    32    11     5   ar
    33    25    20   ar
    34    33    28   ar
    35     1     4    1
    36    18    19    1
@<TRIPOS>MOLECULE
*****
 33 36 0 0 0
SMALL
GASTEIGER

@<TRIPOS>ATOM
      1 N         142.2086  138.7728  160.4443 N.am    1  UNL1       -0.2806
      2 C         143.1328  138.3499  161.5475 C.2     1  UNL1        0.2495
      3 O         144.4278  137.6671  161.2206 O.2     1  UNL1       -0.2698
      4 H         141.3587  139.2210  160.6588 H       1  UNL1        0.1552
      5 C         142.9492  136.8507  157.0521 C.ar    1  UNL1        0.0144
      6 C         142.5784  137.1106  158.4821 C.ar    1  UNL1        0.0155
      7 C         142.5795  138.5130  159.0143 C.ar    1  UNL1        0.0465
      8 C         142.9513  139.6556  158.1164 C.ar    1  UNL1       -0.0087
      9 C         142.9524  141.0580  158.6486 C.3     1  UNL1        0.0323
     10 C         143.3222  139.3957  156.6864 C.ar    1  UNL1       -0.0072
     11 C         143.3211  137.9933  156.1543 C.ar    1  UNL1       -0.0206
     12 C         143.6919  137.7334  154.7242 C.3     1  UNL1        0.0311
     13 C         144.4605  131.9394  155.8371 C.3     1  UNL1        0.0716
     14 C         143.6428  133.1908  155.9615 C.ar    1  UNL1        0.1175
     15 N         142.2502  133.3895  155.4405 N.ar    1  UNL1       -0.2296
     16 C         141.8210  134.7847  155.7857 C.ar    1  UNL1        0.1171
     17 C         142.9482  135.4483  156.5200 C.ar    1  UNL1        0.0766
     18 N         144.0741  134.4632  156.6286 N.ar    1  UNL1       -0.3407
     19 H         144.9436  134.6236  157.0617 H       1  UNL1        0.1671
     20 C         142.7621  138.6098  162.9775 C.ar    1  UNL1        0.0539
     21 C         141.6746  137.8071  163.6281 C.ar    1  UNL1        0.0076
     22 C         141.3039  138.0670  165.0582 C.ar    1  UNL1        0.0371
     23 C         142.0205  139.1295  165.8376 C.ar    1  UNL1        0.1391
     24 C         143.1080  139.9322  165.1870 C.ar    1  UNL1        0.0371
     25 C         143.4787  139.6723  163.7570 C.ar    1  UNL1        0.0076
     26 O         141.6498  139.3894  167.2676 O.3     1  UNL1       -0.4690
     27 C         140.3771  140.1136  167.5927 C.3     1  UNL1        0.2508
     28 C         139.8198  141.1199  166.6299 C.ar    1  UNL1        0.1026
     29 C         140.3224  142.5330  166.6474 C.ar    1  UNL1        0.0185
     30 C         139.7652  143.5392  165.6846 C.ar    1  UNL1        0.0029
     31 C         138.7053  143.1323  164.7044 C.ar    1  UNL1        0.0207
     32 C         138.2027  141.7191  164.6869 C.ar    1  UNL1        0.0986
     33 N         138.7599  140.7129  165.6496 N.ar    1  UNL1       -0.2445
@<TRIPOS>BOND
     1    13    14    1
     2    14    15   ar
     3    15    16   ar
     4    16    17   ar
     5    17     5    1
     6     5     6   ar
     7     6     7   ar
     8     7     1    1
     9     1     2   am
    10     2     3    2
    11     2    20    1
    12    20    21   ar
    13    21    22   ar
    14    22    23   ar
    15    23    26    1
    16    26    27    1
    17    27    28    1
    18    28    29   ar
    19    29    30   ar
    20    30    31   ar
    21    31    32   ar
    22    32    33   ar
    23    23    24   ar
    24    24    25   ar
    25     7     8   ar
    26     8     9    1
    27     8    10   ar
    28    10    11   ar
    29    11    12    1
    30    17    18   ar
    31    18    14   ar
    32    11     5   ar
    33    25    20   ar
    34    33    28   ar
    35     1     4    1
    36    18    19    1
@<TRIPOS>MOLECULE
*****
 33 36 0 0 0
SMALL
GASTEIGER

@<TRIPOS>ATOM
      1 N         143.0928  138.0841  157.6853 N.am    1  UNL1       -0.2806
      2 C         142.9999  138.1656  159.1802 C.2     1  UNL1        0.2495
      3 O         142.4132  137.0253  159.9585 O.2     1  UNL1       -0.2698
      4 H         143.4779  138.8324  157.1745 H       1  UNL1        0.1552
      5 C         142.8181  134.3320  156.4219 C.ar    1  UNL1        0.0144
      6 C         143.3120  135.5536  157.1385 C.ar    1  UNL1        0.0155
      7 C         142.5989  136.8623  156.9687 C.ar    1  UNL1        0.0465
      8 C         141.3920  136.9493  156.0823 C.ar    1  UNL1       -0.0087
      9 C         140.6789  138.2581  155.9126 C.3     1  UNL1        0.0323
     10 C         140.8981  135.7276  155.3657 C.ar    1  UNL1       -0.0072
     11 C         141.6111  134.4190  155.5355 C.ar    1  UNL1       -0.0206
     12 C         141.1172  133.1972  154.8189 C.3     1  UNL1        0.0311
     13 C         144.4905  129.7494  158.4430 C.3     1  UNL1        0.0716
     14 C         144.2999  130.9169  157.5206 C.ar    1  UNL1        0.1175
     15 N         144.9571  131.1017  156.1849 N.ar    1  UNL1       -0.2296
     16 C         144.4820  132.4035  155.6108 C.ar    1  UNL1        0.1171
     17 C         143.5312  133.0232  156.5916 C.ar    1  UNL1        0.0766
     18 N         143.4186  132.1044  157.7719 N.ar    1  UNL1       -0.3407
     19 H         142.8638  132.2545  158.5712 H       1  UNL1        0.1671
     20 C         143.4938  139.3872  159.8968 C.ar    1  UNL1        0.0539
     21 C         143.9934  139.2789  161.3070 C.ar    1  UNL1        0.0076
     22 C         144.4873  140.5007  162.0236 C.ar    1  UNL1        0.0371
     23 C         144.4815  141.8307  161.3301 C.ar    1  UNL1        0.1391
     24 C         143.9818  141.9390  159.9199 C.ar    1  UNL1        0.0371
     25 C         143.4880  140.7173  159.2033 C.ar    1  UNL1        0.0076
     26 O         144.9753  143.0523  162.0467 O.3     1  UNL1       -0.4690
     27 C         144.0188  143.8981  162.8339 C.3     1  UNL1        0.2508
     28 C         143.3215  143.3247  164.0319 C.ar    1  UNL1        0.1026
     29 C         144.0846  143.0872  165.3013 C.ar    1  UNL1        0.0185
     30 C         143.3874  142.5138  166.4993 C.ar    1  UNL1        0.0029
     31 C         141.9273  142.1780  166.4279 C.ar    1  UNL1        0.0207
     32 C         141.1643  142.4156  165.1585 C.ar    1  UNL1        0.0986
     33 N         141.8614  142.9890  163.9605 N.ar    1  UNL1       -0.2445
@<TRIPOS>BOND
     1    13    14    1
     2    14    15   ar
     3    15    16   ar
     4    16    17   ar
     5    17     5    1
     6     5     6   ar
     7     6     7   ar
     8     7     1    1
     9     1     2   am
    10     2     3    2
    11     2    20    1
    12    20    21   ar
    13    21    22   ar
    14    22    23   ar
    15    23    26    1
    16    26    27    1
    17    27    28    1
    18    28    29   ar
    19    29    30   ar
    20    30    31   ar
    21    31    32   ar
    22    32    33   ar
    23    23    24   ar
    24    24    25   ar
    25     7     8   ar
    26     8     9    1
    27     8    10   ar
    28    10    11   ar
    29    11    12    1
    30    17    18   ar
    31    18    14   ar
    32    11     5   ar
    33    25    20   ar
    34    33    28   ar
    35     1     4    1
    36    18    19    1
@<TRIPOS>MOLECULE
*****
 33 36 0 0 0
SMALL
GASTEIGER

@<TRIPOS>ATOM
      1 N         142.7962  142.0904  162.7561 N.am    1  UNL1       -0.2806
      2 C         141.4939  142.3046  162.0431 C.2     1  UNL1        0.2495
      3 O         140.2295  141.7195  162.5989 O.2     1  UNL1       -0.2698
      4 H         143.6261  142.4744  162.3913 H       1  UNL1        0.1552
      5 C         142.5148  141.1395  166.5988 C.ar    1  UNL1        0.0144
      6 C         142.4770  141.9387  165.3300 C.ar    1  UNL1        0.0155
      7 C         142.8339  141.2912  164.0249 C.ar    1  UNL1        0.0465
      8 C         143.2286  139.8445  163.9886 C.ar    1  UNL1       -0.0087
      9 C         143.5856  139.1971  162.6834 C.3     1  UNL1        0.0323
     10 C         143.2664  139.0453  165.2573 C.ar    1  UNL1       -0.0072
     11 C         142.9095  139.6928  166.5624 C.ar    1  UNL1       -0.0206
     12 C         142.9473  138.8936  167.8313 C.3     1  UNL1        0.0311
     13 C         139.7422  142.9975  170.6904 C.3     1  UNL1        0.0716
     14 C         140.8835  142.6409  169.7847 C.ar    1  UNL1        0.1175
     15 N         142.3340  142.9256  170.0401 N.ar    1  UNL1       -0.2296
     16 C         143.1216  142.3977  168.8778 C.ar    1  UNL1        0.1171
     17 C         142.1579  141.7869  167.9040 C.ar    1  UNL1        0.0766
     18 N         140.7747  141.9373  168.4645 N.ar    1  UNL1       -0.3407
     19 H         139.9417  141.6283  168.0403 H       1  UNL1        0.1671
     20 C         141.4561  143.1037  160.7743 C.ar    1  UNL1        0.0539
     21 C         140.7553  144.4296  160.7436 C.ar    1  UNL1        0.0076
     22 C         140.7175  145.2288  159.4748 C.ar    1  UNL1        0.0371
     23 C         141.3805  144.7021  158.2366 C.ar    1  UNL1        0.1391
     24 C         142.0813  143.3762  158.2673 C.ar    1  UNL1        0.0371
     25 C         142.1191  142.5770  159.5361 C.ar    1  UNL1        0.0076
     26 O         141.3427  145.5012  156.9679 O.3     1  UNL1       -0.4690
     27 C         140.0323  145.7682  156.2884 C.3     1  UNL1        0.2508
     28 C         139.6377  147.1744  155.9463 C.ar    1  UNL1        0.1026
     29 C         140.0171  147.7576  154.6174 C.ar    1  UNL1        0.0185
     30 C         139.6225  149.1637  154.2752 C.ar    1  UNL1        0.0029
     31 C         138.8485  149.9866  155.2620 C.ar    1  UNL1        0.0207
     32 C         138.4690  149.4034  156.5908 C.ar    1  UNL1        0.0986
     33 N         138.8636  147.9973  156.9330 N.ar    1  UNL1       -0.2445
@<TRIPOS>BOND
     1    13    14    1
     2    14    15   ar
     3    15    16   ar
     4    16    17   ar
     5    17     5    1
     6     5     6   ar
     7     6     7   ar
     8     7     1    1
     9     1     2   am
    10     2     3    2
    11     2    20    1
    12    20    21   ar
    13    21    22   ar
    14    22    23   ar
    15    23    26    1
    16    26    27    1
    17    27    28    1
    18    28    29   ar
    19    29    30   ar
    20    30    31   ar
    21    31    32   ar
    22    32    33   ar
    23    23    24   ar
    24    24    25   ar
    25     7     8   ar
    26     8     9    1
    27     8    10   ar
    28    10    11   ar
    29    11    12    1
    30    17    18   ar
    31    18    14   ar
    32    11     5   ar
    33    25    20   ar
    34    33    28   ar
    35     1     4    1
    36    18    19    1
