@<TRIPOS>MOLECULE
*****
 32 35 0 0 0
SMALL
GASTEIGER

@<TRIPOS>ATOM
      1 N         141.7420  143.1248  161.4389 N.am    1  UNL1       -0.2684
      2 C         142.7722  143.4047  162.4928 C.2     1  UNL1        0.3078
      3 O         143.9534  144.2728  162.1749 O.2     1  UNL1       -0.2522
      4 N         142.6210  142.8166  163.8643 N.am    1  UNL1       -0.2605
      5 C         143.6512  143.0966  164.9181 C.3     1  UNL1        0.1164
      6 C         143.5001  142.5084  166.2896 C.3     1  UNL1        0.1137
      7 N         142.3187  141.6403  166.6075 N.pl3   1  UNL1       -0.2913
      8 C         141.2886  141.3603  165.5537 C.3     1  UNL1        0.0941
      9 C         140.1074  140.4922  165.8715 C.3     1  UNL1        0.0233
     10 C         141.4398  141.9485  164.1821 C.3     1  UNL1        0.1147
     11 H         140.9667  142.5550  161.6475 H       1  UNL1        0.1564
     12 C         142.1676  141.0521  167.9791 C.ar    1  UNL1        0.1365
     13 N         142.8115  139.7375  168.3065 N.ar    1  UNL1       -0.1990
     14 C         142.6604  139.1494  169.6780 C.ar    1  UNL1        0.2153
     15 N         143.3043  137.8347  170.0055 N.pl3   1  UNL1       -0.3274
     16 N         141.8654  139.8759  170.7223 N.ar    1  UNL1       -0.2073
     17 C         141.2215  141.1904  170.3948 C.ar    1  UNL1        0.1163
     18 S         140.3847  142.1294  171.2122 S.2     1  UNL1       -0.0673
     19 C         140.0187  143.2978  170.3458 C.ar    1  UNL1        0.0370
     20 C         140.6292  143.0811  168.9929 C.ar    1  UNL1        0.0118
     21 C         141.3726  141.7786  169.0232 C.ar    1  UNL1        0.0561
     22 H         143.8261  137.3579  169.3202 H       1  UNL1        0.1452
     23 H         143.2052  137.4487  170.9057 H       1  UNL1        0.1452
     24 C         142.1954  144.8893  157.3242 C.ar    1  UNL1        0.1385
     25 C         142.9380  143.6383  157.6899 C.ar    1  UNL1        0.0382
     26 C         142.7869  143.0501  159.0614 C.ar    1  UNL1        0.0175
     27 C         141.8932  143.7129  160.0674 C.ar    1  UNL1        0.0478
     28 C         141.1505  144.9639  159.7017 C.ar    1  UNL1       -0.0053
     29 C         140.2568  145.6267  160.7077 C.3     1  UNL1        0.0324
     30 C         141.3017  145.5521  158.3302 C.ar    1  UNL1        0.0339
     31 C         141.1298  145.8151  155.1431 C.3     1  UNL1        0.2525
     32 O         142.3466  145.4774  155.9526 O.3     1  UNL1       -0.4714
@<TRIPOS>BOND
     1    31    32    1
     2    32    24    1
     3    24    25   ar
     4    25    26   ar
     5    26    27   ar
     6    27     1    1
     7     1     2   am
     8     2     3    2
     9     2     4   am
    10     4     5    1
    11     5     6    1
    12     6     7    1
    13     7    12    1
    14    12    13   ar
    15    13    14   ar
    16    14    15    1
    17    14    16   ar
    18    16    17   ar
    19    17    18   ar
    20    18    19   ar
    21    19    20   ar
    22    20    21   ar
    23     7     8    1
    24     8     9    1
    25     8    10    1
    26    27    28   ar
    27    28    29    1
    28    28    30   ar
    29    30    24   ar
    30    10     4    1
    31    21    12   ar
    32    21    17   ar
    33     1    11    1
    34    15    22    1
    35    15    23    1
@<TRIPOS>MOLECULE
*****
 32 35 0 0 0
SMALL
GASTEIGER

@<TRIPOS>ATOM
      1 N         141.7725  139.8555  161.2224 N.am    1  UNL1       -0.2684
      2 C         142.3417  139.0756  162.3705 C.2     1  UNL1        0.3078
      3 O         143.3198  137.9679  162.1131 O.2     1  UNL1       -0.2522
      4 N         141.9327  139.4035  163.7759 N.am    1  UNL1       -0.2605
      5 C         142.5018  138.6237  164.9240 C.3     1  UNL1        0.1164
      6 C         142.0929  138.9515  166.3293 C.3     1  UNL1        0.1137
      7 N         141.1147  140.0593  166.5867 N.pl3   1  UNL1       -0.2913
      8 C         140.5456  140.8391  165.4387 C.3     1  UNL1        0.0941
      9 C         139.5675  141.9468  165.6962 C.3     1  UNL1        0.0233
     10 C         140.9546  140.5112  164.0333 C.3     1  UNL1        0.1147
     11 H         141.1305  140.5825  161.3913 H       1  UNL1        0.1564
     12 C         140.7058  140.3872  167.9922 C.ar    1  UNL1        0.1365
     13 N         139.4092  139.8655  168.5371 N.ar    1  UNL1       -0.1990
     14 C         139.0003  140.1934  169.9424 C.ar    1  UNL1        0.2153
     15 N         137.7037  139.6717  170.4873 N.pl3   1  UNL1       -0.3274
     16 N         139.8878  141.0429  170.8031 N.ar    1  UNL1       -0.2073
     17 C         141.1843  141.5645  170.2582 C.ar    1  UNL1        0.1163
     18 S         142.2572  142.4188  170.8659 S.2     1  UNL1       -0.0673
     19 C         143.3292  142.6188  169.8360 C.ar    1  UNL1        0.0370
     20 C         142.9190  141.8883  168.5918 C.ar    1  UNL1        0.0118
     21 C         141.5933  141.2367  168.8527 C.ar    1  UNL1        0.0561
     22 H         137.1212  139.1141  169.9225 H       1  UNL1        0.1452
     23 H         137.4353  139.8868  171.4098 H       1  UNL1        0.1452
     24 C         142.9995  138.8718  157.0062 C.ar    1  UNL1        0.1385
     25 C         141.9116  138.0840  157.6739 C.ar    1  UNL1        0.0382
     26 C         141.5026  138.4118  159.0793 C.ar    1  UNL1        0.0175
     27 C         142.1815  139.5276  159.8171 C.ar    1  UNL1        0.0478
     28 C         143.2694  140.3155  159.1493 C.ar    1  UNL1       -0.0053
     29 C         143.9483  141.4312  159.8870 C.3     1  UNL1        0.0324
     30 C         143.6783  139.9876  157.7439 C.ar    1  UNL1        0.0339
     31 C         144.3017  137.3687  155.3344 C.3     1  UNL1        0.2525
     32 O         143.4084  138.5439  155.6007 O.3     1  UNL1       -0.4714
@<TRIPOS>BOND
     1    31    32    1
     2    32    24    1
     3    24    25   ar
     4    25    26   ar
     5    26    27   ar
     6    27     1    1
     7     1     2   am
     8     2     3    2
     9     2     4   am
    10     4     5    1
    11     5     6    1
    12     6     7    1
    13     7    12    1
    14    12    13   ar
    15    13    14   ar
    16    14    15    1
    17    14    16   ar
    18    16    17   ar
    19    17    18   ar
    20    18    19   ar
    21    19    20   ar
    22    20    21   ar
    23     7     8    1
    24     8     9    1
    25     8    10    1
    26    27    28   ar
    27    28    29    1
    28    28    30   ar
    29    30    24   ar
    30    10     4    1
    31    21    12   ar
    32    21    17   ar
    33     1    11    1
    34    15    22    1
    35    15    23    1
@<TRIPOS>MOLECULE
*****
 32 35 0 0 0
SMALL
GASTEIGER

@<TRIPOS>ATOM
      1 N         139.4541  143.7377  159.4966 N.am    1  UNL1       -0.2684
      2 C         140.2547  142.5815  160.0185 C.2     1  UNL1        0.3078
      3 O         141.3181  141.9589  159.1633 O.2     1  UNL1       -0.2522
      4 N         139.9918  142.0480  161.3955 N.am    1  UNL1       -0.2605
      5 C         140.7924  140.8918  161.9174 C.3     1  UNL1        0.1164
      6 C         140.5295  140.3583  163.2943 C.3     1  UNL1        0.1137
      7 N         139.4660  140.9810  164.1496 N.pl3   1  UNL1       -0.2913
      8 C         138.6654  142.1371  163.6278 C.3     1  UNL1        0.0941
      9 C         137.6020  142.7598  164.4830 C.3     1  UNL1        0.0233
     10 C         138.9284  142.6706  162.2507 C.3     1  UNL1        0.1147
     11 H         138.7561  144.1464  160.0579 H       1  UNL1        0.1564
     12 C         139.2032  140.4474  165.5266 C.ar    1  UNL1        0.1365
     13 N         138.2715  139.2872  165.7162 N.ar    1  UNL1       -0.1990
     14 C         138.0087  138.7537  167.0932 C.ar    1  UNL1        0.2153
     15 N         137.0770  137.5934  167.2828 N.pl3   1  UNL1       -0.3274
     16 N         138.6775  139.3803  168.2807 N.ar    1  UNL1       -0.2073
     17 C         139.6091  140.5405  168.0911 C.ar    1  UNL1        0.1163
     18 S         140.4066  141.3568  169.0646 S.2     1  UNL1       -0.0673
     19 C         141.1624  142.3948  168.2892 C.ar    1  UNL1        0.0370
     20 C         140.8319  142.2201  166.8365 C.ar    1  UNL1        0.0118
     21 C         139.8719  141.0741  166.7141 C.ar    1  UNL1        0.0561
     22 H         136.6380  137.1821  166.5034 H       1  UNL1        0.1452
     23 H         136.9045  137.2432  168.1866 H       1  UNL1        0.1452
     24 C         140.2427  145.3383  155.3655 C.ar    1  UNL1        0.1385
     25 C         140.9135  145.9632  156.5527 C.ar    1  UNL1        0.0382
     26 C         140.6507  145.4298  157.9297 C.ar    1  UNL1        0.0175
     27 C         139.7169  144.2712  158.1196 C.ar    1  UNL1        0.0478
     28 C         139.0461  143.6462  156.9324 C.ar    1  UNL1       -0.0053
     29 C         138.1124  142.4877  157.1222 C.3     1  UNL1        0.0324
     30 C         139.3090  144.1798  155.5553 C.ar    1  UNL1        0.0339
     31 C         140.5802  147.3524  153.7594 C.3     1  UNL1        0.2525
     32 O         140.5056  145.8718  153.9885 O.3     1  UNL1       -0.4714
@<TRIPOS>BOND
     1    31    32    1
     2    32    24    1
     3    24    25   ar
     4    25    26   ar
     5    26    27   ar
     6    27     1    1
     7     1     2   am
     8     2     3    2
     9     2     4   am
    10     4     5    1
    11     5     6    1
    12     6     7    1
    13     7    12    1
    14    12    13   ar
    15    13    14   ar
    16    14    15    1
    17    14    16   ar
    18    16    17   ar
    19    17    18   ar
    20    18    19   ar
    21    19    20   ar
    22    20    21   ar
    23     7     8    1
    24     8     9    1
    25     8    10    1
    26    27    28   ar
    27    28    29    1
    28    28    30   ar
    29    30    24   ar
    30    10     4    1
    31    21    12   ar
    32    21    17   ar
    33     1    11    1
    34    15    22    1
    35    15    23    1
@<TRIPOS>MOLECULE
*****
 32 35 0 0 0
SMALL
GASTEIGER

@<TRIPOS>ATOM
      1 N         140.1763  140.3937  161.2587 N.am    1  UNL1       -0.2684
      2 C         139.2947  140.0163  162.4122 C.2     1  UNL1        0.3078
      3 O         138.0637  139.1922  162.1769 O.2     1  UNL1       -0.2522
      4 N         139.6441  140.4630  163.8008 N.am    1  UNL1       -0.2605
      5 C         138.7625  140.0856  164.9543 C.3     1  UNL1        0.1164
      6 C         139.1119  140.5324  166.3428 C.3     1  UNL1        0.1137
      7 N         140.3430  141.3566  166.5781 N.pl3   1  UNL1       -0.2913
      8 C         141.2246  141.7340  165.4247 C.3     1  UNL1        0.0941
      9 C         142.4556  142.5581  165.6600 C.3     1  UNL1        0.0233
     10 C         140.8751  141.2872  164.0361 C.3     1  UNL1        0.1147
     11 H         140.9843  140.9346  161.4131 H       1  UNL1        0.1564
     12 C         140.6924  141.8033  167.9668 C.ar    1  UNL1        0.1365
     13 N         140.2546  143.1531  168.4528 N.ar    1  UNL1       -0.1990
     14 C         140.6039  143.5998  169.8414 C.ar    1  UNL1        0.2153
     15 N         140.1661  144.9498  170.3274 N.pl3   1  UNL1       -0.3274
     16 N         141.3912  142.6967  170.7441 N.ar    1  UNL1       -0.2073
     17 C         141.8290  141.3469  170.2580 C.ar    1  UNL1        0.1163
     18 S         142.6096  140.2479  170.9159 S.2     1  UNL1       -0.0673
     19 C         142.7427  139.1220  169.9338 C.ar    1  UNL1        0.0370
     20 C         142.0443  139.5251  168.6690 C.ar    1  UNL1        0.0118
     21 C         141.4796  140.9002  168.8694 C.ar    1  UNL1        0.0561
     22 H         139.6494  145.5425  169.7350 H       1  UNL1        0.1452
     23 H         140.3954  145.2430  171.2389 H       1  UNL1        0.1452
     24 C         139.1280  139.0535  157.0929 C.ar    1  UNL1        0.1385
     25 C         139.9465  138.1657  157.9827 C.ar    1  UNL1        0.0382
     26 C         140.2960  138.6124  159.3713 C.ar    1  UNL1        0.0175
     27 C         139.8269  139.9470  159.8702 C.ar    1  UNL1        0.0478
     28 C         139.0083  140.8349  158.9803 C.ar    1  UNL1       -0.0053
     29 C         138.5392  142.1695  159.4791 C.3     1  UNL1        0.0324
     30 C         138.6589  140.3881  157.5917 C.ar    1  UNL1        0.0339
     31 C         139.0410  137.1911  155.2835 C.3     1  UNL1        0.2525
     32 O         138.7786  138.6068  155.7042 O.3     1  UNL1       -0.4714
@<TRIPOS>BOND
     1    31    32    1
     2    32    24    1
     3    24    25   ar
     4    25    26   ar
     5    26    27   ar
     6    27     1    1
     7     1     2   am
     8     2     3    2
     9     2     4   am
    10     4     5    1
    11     5     6    1
    12     6     7    1
    13     7    12    1
    14    12    13   ar
    15    13    14   ar
    16    14    15    1
    17    14    16   ar
    18    16    17   ar
    19    17    18   ar
    20    18    19   ar
    21    19    20   ar
    22    20    21   ar
    23     7     8    1
    24     8     9    1
    25     8    10    1
    26    27    28   ar
    27    28    29    1
    28    28    30   ar
    29    30    24   ar
    30    10     4    1
    31    21    12   ar
    32    21    17   ar
    33     1    11    1
    34    15    22    1
    35    15    23    1
@<TRIPOS>MOLECULE
*****
 32 35 0 0 0
SMALL
GASTEIGER

@<TRIPOS>ATOM
      1 N         140.4228  142.3995  161.0284 N.am    1  UNL1       -0.2684
      2 C         139.8884  143.2066  162.1744 C.2     1  UNL1        0.3078
      3 O         138.8874  144.2950  161.9228 O.2     1  UNL1       -0.2522
      4 N         140.3551  142.9252  163.5718 N.am    1  UNL1       -0.2605
      5 C         139.8208  143.7323  164.7178 C.3     1  UNL1        0.1164
      6 C         140.2874  143.4510  166.1153 C.3     1  UNL1        0.1137
      7 N         141.2885  142.3625  166.3669 N.pl3   1  UNL1       -0.2913
      8 C         141.8228  141.5555  165.2210 C.3     1  UNL1        0.0941
      9 C         142.8238  140.4671  165.4727 C.3     1  UNL1        0.0233
     10 C         141.3561  141.8368  163.8235 C.3     1  UNL1        0.1147
     11 H         141.0798  141.6851  161.1935 H       1  UNL1        0.1564
     12 C         141.7552  142.0812  167.7644 C.ar    1  UNL1        0.1365
     13 N         143.0761  142.6134  168.2355 N.ar    1  UNL1       -0.1990
     14 C         143.5428  142.3321  169.6329 C.ar    1  UNL1        0.2153
     15 N         144.8638  142.8643  170.1039 N.pl3   1  UNL1       -0.3274
     16 N         142.6885  141.5186  170.5595 N.ar    1  UNL1       -0.2073
     17 C         141.3675  140.9864  170.0885 C.ar    1  UNL1        0.1163
     18 S         140.3173  140.1607  170.7705 S.2     1  UNL1       -0.0673
     19 C         139.2016  139.9316  169.7945 C.ar    1  UNL1        0.0370
     20 C         139.5622  140.6158  168.5092 C.ar    1  UNL1        0.0118
     21 C         140.9009  141.2678  168.6910 C.ar    1  UNL1        0.0561
     22 H         145.4245  143.3982  169.4958 H       1  UNL1        0.1452
     23 H         145.1701  142.6796  171.0212 H       1  UNL1        0.1452
     24 C         139.0228  143.2435  156.8359 C.ar    1  UNL1        0.1385
     25 C         138.1556  142.4547  157.7717 C.ar    1  UNL1        0.0382
     26 C         138.6222  142.1733  159.1692 C.ar    1  UNL1        0.0175
     27 C         139.9561  142.6808  159.6310 C.ar    1  UNL1        0.0478
     28 C         140.8234  143.4697  158.6951 C.ar    1  UNL1       -0.0053
     29 C         142.1572  143.9772  159.1569 C.3     1  UNL1        0.0324
     30 C         140.3567  143.7510  157.2976 C.ar    1  UNL1        0.0339
     31 C         137.8071  144.7893  155.1380 C.3     1  UNL1        0.2525
     32 O         138.5561  143.5248  155.4384 O.3     1  UNL1       -0.4714
@<TRIPOS>BOND
     1    31    32    1
     2    32    24    1
     3    24    25   ar
     4    25    26   ar
     5    26    27   ar
     6    27     1    1
     7     1     2   am
     8     2     3    2
     9     2     4   am
    10     4     5    1
    11     5     6    1
    12     6     7    1
    13     7    12    1
    14    12    13   ar
    15    13    14   ar
    16    14    15    1
    17    14    16   ar
    18    16    17   ar
    19    17    18   ar
    20    18    19   ar
    21    19    20   ar
    22    20    21   ar
    23     7     8    1
    24     8     9    1
    25     8    10    1
    26    27    28   ar
    27    28    29    1
    28    28    30   ar
    29    30    24   ar
    30    10     4    1
    31    21    12   ar
    32    21    17   ar
    33     1    11    1
    34    15    22    1
    35    15    23    1
@<TRIPOS>MOLECULE
*****
 32 35 0 0 0
SMALL
GASTEIGER

@<TRIPOS>ATOM
      1 N         142.1679  139.4305  161.2028 N.am    1  UNL1       -0.2684
      2 C         141.8085  140.7616  161.7937 C.2     1  UNL1        0.3078
      3 O         141.3221  141.8691  160.9068 O.2     1  UNL1       -0.2522
      4 N         141.9356  140.9850  163.2715 N.am    1  UNL1       -0.2605
      5 C         141.5762  142.3161  163.8624 C.3     1  UNL1        0.1164
      6 C         141.7032  142.5396  165.3401 C.3     1  UNL1        0.1137
      7 N         142.1897  141.4319  166.2271 N.pl3   1  UNL1       -0.2913
      8 C         142.5491  140.1009  165.6362 C.3     1  UNL1        0.0941
      9 C         143.0356  138.9934  166.5232 C.3     1  UNL1        0.0233
     10 C         142.4220  139.8775  164.1584 C.3     1  UNL1        0.1147
     11 H         142.4872  138.7035  161.7849 H       1  UNL1        0.1564
     12 C         142.3168  141.6554  167.7049 C.ar    1  UNL1        0.1365
     13 N         143.5497  142.3030  168.2623 N.ar    1  UNL1       -0.1990
     14 C         143.6767  142.5265  169.7400 C.ar    1  UNL1        0.2153
     15 N         144.9097  143.1740  170.2973 N.pl3   1  UNL1       -0.3274
     16 N         142.5709  142.1024  170.6605 N.ar    1  UNL1       -0.2073
     17 C         141.3380  141.4549  170.1032 C.ar    1  UNL1        0.1163
     18 S         140.0931  140.9356  170.7593 S.2     1  UNL1       -0.0673
     19 C         139.1966  140.3911  169.6870 C.ar    1  UNL1        0.0370
     20 C         139.8875  140.5739  168.3682 C.ar    1  UNL1        0.0118
     21 C         141.2109  141.2314  168.6254 C.ar    1  UNL1        0.0561
     22 H         145.6355  143.4524  169.6932 H       1  UNL1        0.1452
     23 H         144.9931  143.3207  171.2673 H       1  UNL1        0.1452
     24 C         141.7867  138.7601  156.7694 C.ar    1  UNL1        0.1385
     25 C         143.0857  139.2392  157.3465 C.ar    1  UNL1        0.0382
     26 C         143.2128  139.4627  158.8243 C.ar    1  UNL1        0.0175
     27 C         142.0409  139.2070  159.7250 C.ar    1  UNL1        0.0478
     28 C         140.7418  138.7279  159.1479 C.ar    1  UNL1       -0.0053
     29 C         139.5699  138.4723  160.0485 C.3     1  UNL1        0.0324
     30 C         140.6148  138.5044  157.6701 C.ar    1  UNL1        0.0339
     31 C         142.4118  137.4172  154.6349 C.3     1  UNL1        0.2525
     32 O         141.6597  138.5366  155.2916 O.3     1  UNL1       -0.4714
@<TRIPOS>BOND
     1    31    32    1
     2    32    24    1
     3    24    25   ar
     4    25    26   ar
     5    26    27   ar
     6    27     1    1
     7     1     2   am
     8     2     3    2
     9     2     4   am
    10     4     5    1
    11     5     6    1
    12     6     7    1
    13     7    12    1
    14    12    13   ar
    15    13    14   ar
    16    14    15    1
    17    14    16   ar
    18    16    17   ar
    19    17    18   ar
    20    18    19   ar
    21    19    20   ar
    22    20    21   ar
    23     7     8    1
    24     8     9    1
    25     8    10    1
    26    27    28   ar
    27    28    29    1
    28    28    30   ar
    29    30    24   ar
    30    10     4    1
    31    21    12   ar
    32    21    17   ar
    33     1    11    1
    34    15    22    1
    35    15    23    1
@<TRIPOS>MOLECULE
*****
 32 35 0 0 0
SMALL
GASTEIGER

@<TRIPOS>ATOM
      1 N         142.1185  137.3336  157.7013 N.am    1  UNL1       -0.2684
      2 C         142.9586  138.5702  157.5778 C.2     1  UNL1        0.3078
      3 O         143.9127  138.7170  156.4297 O.2     1  UNL1       -0.2522
      4 N         142.8445  139.6598  158.6022 N.am    1  UNL1       -0.2605
      5 C         143.6846  140.8964  158.4787 C.3     1  UNL1        0.1164
      6 C         143.5705  141.9860  159.5031 C.3     1  UNL1        0.1137
      7 N         142.6163  141.8392  160.6513 N.pl3   1  UNL1       -0.2913
      8 C         141.7762  140.6026  160.7748 C.3     1  UNL1        0.0941
      9 C         140.8221  140.4558  161.9229 C.3     1  UNL1        0.0233
     10 C         141.8904  139.5130  159.7503 C.3     1  UNL1        0.1147
     11 H         141.4923  137.2372  158.4548 H       1  UNL1        0.1564
     12 C         142.5022  142.9289  161.6757 C.ar    1  UNL1        0.1365
     13 N         141.5010  144.0304  161.4908 N.ar    1  UNL1       -0.1990
     14 C         141.3869  145.1200  162.5152 C.ar    1  UNL1        0.2153
     15 N         140.3855  146.2215  162.3302 N.pl3   1  UNL1       -0.3274
     16 N         142.2740  145.1083  163.7247 N.ar    1  UNL1       -0.2073
     17 C         143.2753  144.0068  163.9097 C.ar    1  UNL1        0.1163
     18 S         144.2769  143.7323  164.9920 S.2     1  UNL1       -0.0673
     19 C         145.0100  142.4729  164.6363 C.ar    1  UNL1        0.0370
     20 C         144.4615  141.9691  163.3343 C.ar    1  UNL1        0.0118
     21 C         143.3893  142.9171  162.8852 C.ar    1  UNL1        0.0561
     22 H         139.8033  146.2293  161.5364 H       1  UNL1        0.1452
     23 H         140.3107  146.9367  163.0026 H       1  UNL1        0.1452
     24 C         142.4608  134.0646  154.6278 C.ar    1  UNL1        0.1385
     25 C         143.5092  134.2072  155.6911 C.ar    1  UNL1        0.0382
     26 C         143.3952  135.2968  156.7156 C.ar    1  UNL1        0.0175
     27 C         142.2326  136.2440  156.6769 C.ar    1  UNL1        0.0478
     28 C         141.1841  136.1014  155.6136 C.ar    1  UNL1       -0.0053
     29 C         140.0216  137.0484  155.5749 C.3     1  UNL1        0.0324
     30 C         141.2983  135.0117  154.5891 C.ar    1  UNL1        0.0339
     31 C         143.2528  131.6836  153.9542 C.3     1  UNL1        0.2525
     32 O         142.5749  132.9749  153.6033 O.3     1  UNL1       -0.4714
@<TRIPOS>BOND
     1    31    32    1
     2    32    24    1
     3    24    25   ar
     4    25    26   ar
     5    26    27   ar
     6    27     1    1
     7     1     2   am
     8     2     3    2
     9     2     4   am
    10     4     5    1
    11     5     6    1
    12     6     7    1
    13     7    12    1
    14    12    13   ar
    15    13    14   ar
    16    14    15    1
    17    14    16   ar
    18    16    17   ar
    19    17    18   ar
    20    18    19   ar
    21    19    20   ar
    22    20    21   ar
    23     7     8    1
    24     8     9    1
    25     8    10    1
    26    27    28   ar
    27    28    29    1
    28    28    30   ar
    29    30    24   ar
    30    10     4    1
    31    21    12   ar
    32    21    17   ar
    33     1    11    1
    34    15    22    1
    35    15    23    1
@<TRIPOS>MOLECULE
*****
 32 35 0 0 0
SMALL
GASTEIGER

@<TRIPOS>ATOM
      1 N         139.9281  140.4147  164.8386 N.am    1  UNL1       -0.2684
      2 C         140.8089  139.3819  164.2002 C.2     1  UNL1        0.3078
      3 O         141.6960  138.5228  165.0517 O.2     1  UNL1       -0.2522
      4 N         140.8027  139.2083  162.7103 N.am    1  UNL1       -0.2605
      5 C         141.6835  138.1755  162.0719 C.3     1  UNL1        0.1164
      6 C         141.6772  138.0019  160.5820 C.3     1  UNL1        0.1137
      7 N         140.7901  138.8610  159.7305 N.pl3   1  UNL1       -0.2913
      8 C         139.9093  139.8938  160.3689 C.3     1  UNL1        0.0941
      9 C         139.0222  140.7528  159.5174 C.3     1  UNL1        0.0233
     10 C         139.9156  140.0674  161.8588 C.3     1  UNL1        0.1147
     11 H         139.3459  140.9786  164.2798 H       1  UNL1        0.1564
     12 C         140.7839  138.6873  158.2406 C.ar    1  UNL1        0.1365
     13 N         139.6235  138.0149  157.5688 N.ar    1  UNL1       -0.1990
     14 C         139.6172  137.8412  156.0789 C.ar    1  UNL1        0.2153
     15 N         138.4568  137.1688  155.4071 N.pl3   1  UNL1       -0.3274
     16 N         140.7714  138.3400  155.2608 N.ar    1  UNL1       -0.2073
     17 C         141.9318  139.0124  155.9326 C.ar    1  UNL1        0.1163
     18 S         143.2007  139.6018  155.3919 S.2     1  UNL1       -0.0673
     19 C         143.9912  140.1397  156.5476 C.ar    1  UNL1        0.0370
     20 C         143.2108  139.8828  157.8026 C.ar    1  UNL1        0.0118
     21 C         141.9380  139.1861  157.4225 C.ar    1  UNL1        0.0561
     22 H         137.6993  136.8414  155.9440 H       1  UNL1        0.1452
     23 H         138.4527  137.0548  154.4292 H       1  UNL1        0.1452
     24 C         139.9469  140.9356  169.3083 C.ar    1  UNL1        0.1385
     25 C         140.8452  141.7774  168.4513 C.ar    1  UNL1        0.0382
     26 C         140.8390  141.6038  166.9615 C.ar    1  UNL1        0.0175
     27 C         139.9344  140.5884  166.3285 C.ar    1  UNL1        0.0478
     28 C         139.0360  139.7465  167.1855 C.ar    1  UNL1       -0.0053
     29 C         138.1315  138.7310  166.5526 C.3     1  UNL1        0.0324
     30 C         139.0423  139.9202  168.6754 C.ar    1  UNL1        0.0339
     31 C         141.0953  141.8160  171.4661 C.3     1  UNL1        0.2525
     32 O         139.9532  141.1093  170.7982 O.3     1  UNL1       -0.4714
@<TRIPOS>BOND
     1    31    32    1
     2    32    24    1
     3    24    25   ar
     4    25    26   ar
     5    26    27   ar
     6    27     1    1
     7     1     2   am
     8     2     3    2
     9     2     4   am
    10     4     5    1
    11     5     6    1
    12     6     7    1
    13     7    12    1
    14    12    13   ar
    15    13    14   ar
    16    14    15    1
    17    14    16   ar
    18    16    17   ar
    19    17    18   ar
    20    18    19   ar
    21    19    20   ar
    22    20    21   ar
    23     7     8    1
    24     8     9    1
    25     8    10    1
    26    27    28   ar
    27    28    29    1
    28    28    30   ar
    29    30    24   ar
    30    10     4    1
    31    21    12   ar
    32    21    17   ar
    33     1    11    1
    34    15    22    1
    35    15    23    1
@<TRIPOS>MOLECULE
*****
 32 35 0 0 0
SMALL
GASTEIGER

@<TRIPOS>ATOM
      1 N         142.0917  143.6836  161.4190 N.am    1  UNL1       -0.2684
      2 C         141.0749  142.7573  162.0177 C.2     1  UNL1        0.3078
      3 O         139.9117  142.2880  161.1951 O.2     1  UNL1       -0.2522
      4 N         141.2214  142.3004  163.4387 N.am    1  UNL1       -0.2605
      5 C         140.2047  141.3741  164.0374 C.3     1  UNL1        0.1164
      6 C         140.3512  140.9171  165.4585 C.3     1  UNL1        0.1137
      7 N         141.5145  141.3864  166.2811 N.pl3   1  UNL1       -0.2913
      8 C         142.5312  142.3127  165.6825 C.3     1  UNL1        0.0941
      9 C         143.6944  142.7819  166.5051 C.3     1  UNL1        0.0233
     10 C         142.3846  142.7696  164.2613 C.3     1  UNL1        0.1147
     11 H         142.8551  143.9916  161.9589 H       1  UNL1        0.1564
     12 C         141.6610  140.9294  167.7023 C.ar    1  UNL1        0.1365
     13 N         142.3748  139.6460  168.0076 N.ar    1  UNL1       -0.1990
     14 C         142.5213  139.1890  169.4287 C.ar    1  UNL1        0.2153
     15 N         143.2351  137.9055  169.7340 N.pl3   1  UNL1       -0.3274
     16 N         141.9540  140.0155  170.5446 N.ar    1  UNL1       -0.2073
     17 C         141.2402  141.2989  170.2393 C.ar    1  UNL1        0.1163
     18 S         140.5820  142.3162  171.1236 S.2     1  UNL1       -0.0673
     19 C         140.0288  143.4019  170.2489 C.ar    1  UNL1        0.0370
     20 C         140.3450  143.0557  168.8240 C.ar    1  UNL1        0.0118
     21 C         141.0937  141.7559  168.8181 C.ar    1  UNL1        0.0561
     22 H         143.6074  137.3630  169.0017 H       1  UNL1        0.1452
     23 H         143.3313  137.6055  170.6668 H       1  UNL1        0.1452
     24 C         141.6521  145.0544  157.1555 C.ar    1  UNL1        0.1385
     25 C         140.8253  145.6865  158.2357 C.ar    1  UNL1        0.0382
     26 C         140.9717  145.2297  159.6568 C.ar    1  UNL1        0.0175
     27 C         141.9451  144.1405  159.9979 C.ar    1  UNL1        0.0478
     28 C         142.7721  143.5084  158.9177 C.ar    1  UNL1       -0.0053
     29 C         143.7455  142.4193  159.2588 C.3     1  UNL1        0.0324
     30 C         142.6255  143.9653  157.4966 C.ar    1  UNL1        0.0339
     31 C         142.1132  144.7091  154.6221 C.3     1  UNL1        0.2525
     32 O         141.5056  145.5114  155.7344 O.3     1  UNL1       -0.4714
@<TRIPOS>BOND
     1    31    32    1
     2    32    24    1
     3    24    25   ar
     4    25    26   ar
     5    26    27   ar
     6    27     1    1
     7     1     2   am
     8     2     3    2
     9     2     4   am
    10     4     5    1
    11     5     6    1
    12     6     7    1
    13     7    12    1
    14    12    13   ar
    15    13    14   ar
    16    14    15    1
    17    14    16   ar
    18    16    17   ar
    19    17    18   ar
    20    18    19   ar
    21    19    20   ar
    22    20    21   ar
    23     7     8    1
    24     8     9    1
    25     8    10    1
    26    27    28   ar
    27    28    29    1
    28    28    30   ar
    29    30    24   ar
    30    10     4    1
    31    21    12   ar
    32    21    17   ar
    33     1    11    1
    34    15    22    1
    35    15    23    1
