@<TRIPOS>MOLECULE
*****
 40 44 0 0 0
SMALL
GASTEIGER

@<TRIPOS>ATOM
      1 C         140.5599  144.5976  158.7450 C.3     1  UNL1        0.0542
      2 C         141.7174  143.6594  158.9186 C.3     1  UNL1        0.0162
      3 C         142.3848  143.5311  160.2558 C.3     1  UNL1        0.0104
      4 C         141.8947  144.3408  161.4194 C.3     1  UNL1        0.0768
      5 C         140.7372  145.2791  161.2459 C.3     1  UNL1        0.0095
      6 C         139.6846  146.2952  161.5766 C.3     1  UNL1        0.0005
      7 C         141.0391  145.5036  162.6979 C.3     1  UNL1        0.0005
      8 C         140.0698  145.4074  159.9087 C.3     1  UNL1        0.0162
      9 C         142.5622  144.2125  162.7566 C.2     1  UNL1        0.2251
     10 O         143.6620  145.1578  163.1397 O.2     1  UNL1       -0.2749
     11 N         142.1297  143.1388  163.7107 N.am    1  UNL1       -0.2795
     12 C         141.0299  142.1936  163.3276 C.3     1  UNL1        0.0940
     13 C         140.5974  141.1199  164.2817 C.3     1  UNL1        0.0297
     14 C         141.2649  140.9915  165.6189 C.3     1  UNL1        0.0410
     15 C         142.3647  141.9368  166.0019 C.3     1  UNL1        0.0297
     16 C         142.7972  143.0105  165.0479 C.3     1  UNL1        0.0940
     17 C         141.5894  140.4722  166.9881 C.ar    1  UNL1       -0.0189
     18 C         142.5898  139.3668  167.1533 C.ar    1  UNL1       -0.0040
     19 C         142.9144  138.8475  168.5227 C.ar    1  UNL1       -0.0003
     20 C         142.2387  139.4336  169.7267 C.ar    1  UNL1       -0.0000
     21 C         141.2384  140.5391  169.5615 C.ar    1  UNL1       -0.0003
     22 C         140.9137  141.0584  168.1922 C.ar    1  UNL1       -0.0040
     23 C         140.2777  139.8659  165.7113 C.ar    1  UNL1       -0.0189
     24 C         140.5290  138.5854  164.9717 C.ar    1  UNL1       -0.0040
     25 C         139.5419  137.4597  165.0641 C.ar    1  UNL1       -0.0003
     26 C         138.3034  137.6147  165.8961 C.ar    1  UNL1       -0.0000
     27 C         138.0521  138.8953  166.6357 C.ar    1  UNL1       -0.0003
     28 C         139.0393  140.0209  166.5433 C.ar    1  UNL1       -0.0040
     29 N         139.8925  144.7260  157.4079 N.3     1  UNL1       -0.2962
     30 H         139.8577  143.7895  157.0050 H       1  UNL1        0.1235
     31 C         140.4781  145.6262  156.3607 C.3     1  UNL1        0.0768
     32 C         141.6676  145.1767  155.5652 C.3     1  UNL1        0.0220
     33 C         138.6661  149.6755  155.6057 C.ar    1  UNL1        0.1387
     34 C         139.5085  149.0222  154.5505 C.ar    1  UNL1        0.0366
     35 C         140.1125  147.6725  154.8021 C.ar    1  UNL1        0.0001
     36 C         139.8741  146.9760  156.1090 C.ar    1  UNL1       -0.0078
     37 C         139.0317  147.6293  157.1642 C.ar    1  UNL1        0.0001
     38 C         138.4277  148.9790  156.9126 C.ar    1  UNL1        0.0366
     39 C         138.8877  152.1122  154.7321 C.3     1  UNL1        0.2525
     40 O         138.0621  151.0253  155.3540 O.3     1  UNL1       -0.4714
@<TRIPOS>BOND
     1    39    40    1
     2    40    33    1
     3    33    34   ar
     4    34    35   ar
     5    35    36   ar
     6    36    31    1
     7    31    32    1
     8    31    29    1
     9     1    29    1
    10     1     2    1
    11     2     3    1
    12     3     4    1
    13     4     9    1
    14     9    10    2
    15     9    11   am
    16    11    12    1
    17    12    13    1
    18    13    14    1
    19    14    17    1
    20    17    18   ar
    21    18    19   ar
    22    19    20   ar
    23    20    21   ar
    24    21    22   ar
    25    14    23    1
    26    23    24   ar
    27    24    25   ar
    28    25    26   ar
    29    26    27   ar
    30    27    28   ar
    31    14    15    1
    32    15    16    1
    33     4     5    1
    34     5     6    1
    35     5     7    1
    36     5     8    1
    37    36    37   ar
    38    37    38   ar
    39    38    33   ar
    40     8     1    1
    41    16    11    1
    42    22    17   ar
    43    28    23   ar
    44    29    30    1
@<TRIPOS>MOLECULE
*****
 40 44 0 0 0
SMALL
GASTEIGER

@<TRIPOS>ATOM
      1 C         140.9456  144.6758  159.0248 C.3     1  UNL1        0.0542
      2 C         142.1342  143.7935  159.2667 C.3     1  UNL1        0.0162
      3 C         142.6972  143.6562  160.6502 C.3     1  UNL1        0.0104
      4 C         142.0714  144.4011  161.7919 C.3     1  UNL1        0.0768
      5 C         140.8826  145.2834  161.5500 C.3     1  UNL1        0.0095
      6 C         139.7532  146.2325  161.8213 C.3     1  UNL1        0.0005
      7 C         141.0533  145.4756  163.0278 C.3     1  UNL1        0.0005
      8 C         140.3197  145.4208  160.1665 C.3     1  UNL1        0.0162
      9 C         142.6343  144.2637  163.1755 C.2     1  UNL1        0.2251
     10 O         143.6666  145.2357  163.6651 O.2     1  UNL1       -0.2749
     11 N         142.1649  143.1545  164.0694 N.am    1  UNL1       -0.2795
     12 C         141.1327  142.1825  163.5798 C.3     1  UNL1        0.0940
     13 C         140.6633  141.0732  164.4738 C.3     1  UNL1        0.0297
     14 C         141.2262  140.9358  165.8573 C.3     1  UNL1        0.0410
     15 C         142.2585  141.9078  166.3469 C.3     1  UNL1        0.0297
     16 C         142.7278  143.0171  165.4530 C.3     1  UNL1        0.0940
     17 C         141.4586  140.3958  167.2373 C.ar    1  UNL1       -0.0189
     18 C         140.5949  140.8509  168.3761 C.ar    1  UNL1       -0.0040
     19 C         140.8274  140.3108  169.7561 C.ar    1  UNL1       -0.0003
     20 C         141.9235  139.3158  169.9973 C.ar    1  UNL1       -0.0000
     21 C         142.7872  138.8607  168.8585 C.ar    1  UNL1       -0.0003
     22 C         142.5548  139.4007  167.4785 C.ar    1  UNL1       -0.0040
     23 C         140.2747  139.7763  165.8469 C.ar    1  UNL1       -0.0189
     24 C         140.6363  138.5158  165.1188 C.ar    1  UNL1       -0.0040
     25 C         139.6848  137.3563  165.1084 C.ar    1  UNL1       -0.0003
     26 C         138.3715  137.4574  165.8262 C.ar    1  UNL1       -0.0000
     27 C         138.0099  138.7179  166.5544 C.ar    1  UNL1       -0.0003
     28 C         138.9614  139.8774  166.5648 C.ar    1  UNL1       -0.0040
     29 N         140.3827  144.8131  157.6412 N.3     1  UNL1       -0.2962
     30 H         139.8115  145.6582  157.6382 H       1  UNL1        0.1235
     31 C         139.5373  143.7171  157.0632 C.3     1  UNL1        0.0768
     32 C         138.7810  143.9464  155.7883 C.3     1  UNL1        0.0220
     33 C         139.2699  139.7413  159.1541 C.ar    1  UNL1        0.1387
     34 C         138.4444  140.8981  159.6340 C.ar    1  UNL1        0.0366
     35 C         138.5335  142.2234  158.9370 C.ar    1  UNL1        0.0001
     36 C         139.4481  142.3919  157.7602 C.ar    1  UNL1       -0.0078
     37 C         140.2736  141.2351  157.2803 C.ar    1  UNL1        0.0001
     38 C         140.1845  139.9098  157.9772 C.ar    1  UNL1        0.0366
     39 C         139.4462  138.3242  161.3244 C.3     1  UNL1        0.2525
     40 O         139.1807  138.4161  159.8510 O.3     1  UNL1       -0.4714
@<TRIPOS>BOND
     1    39    40    1
     2    40    33    1
     3    33    34   ar
     4    34    35   ar
     5    35    36   ar
     6    36    31    1
     7    31    32    1
     8    31    29    1
     9     1    29    1
    10     1     2    1
    11     2     3    1
    12     3     4    1
    13     4     9    1
    14     9    10    2
    15     9    11   am
    16    11    12    1
    17    12    13    1
    18    13    14    1
    19    14    17    1
    20    17    18   ar
    21    18    19   ar
    22    19    20   ar
    23    20    21   ar
    24    21    22   ar
    25    14    23    1
    26    23    24   ar
    27    24    25   ar
    28    25    26   ar
    29    26    27   ar
    30    27    28   ar
    31    14    15    1
    32    15    16    1
    33     4     5    1
    34     5     6    1
    35     5     7    1
    36     5     8    1
    37    36    37   ar
    38    37    38   ar
    39    38    33   ar
    40     8     1    1
    41    16    11    1
    42    22    17   ar
    43    28    23   ar
    44    29    30    1
@<TRIPOS>MOLECULE
*****
 40 44 0 0 0
SMALL
GASTEIGER

@<TRIPOS>ATOM
      1 C         141.2585  144.0441  158.2029 C.3     1  UNL1        0.0542
      2 C         140.5547  144.7602  159.3172 C.3     1  UNL1        0.0162
      3 C         141.1322  144.7447  160.7015 C.3     1  UNL1        0.0104
      4 C         142.4134  144.0130  160.9715 C.3     1  UNL1        0.0768
      5 C         143.1173  143.2968  159.8572 C.3     1  UNL1        0.0095
      6 C         144.1457  142.4763  159.1367 C.3     1  UNL1        0.0005
      7 C         144.0519  142.9964  160.9912 C.3     1  UNL1        0.0005
      8 C         142.5398  143.3123  158.4729 C.3     1  UNL1        0.0162
      9 C         142.9909  143.9975  162.3558 C.2     1  UNL1        0.2251
     10 O         144.0813  144.9595  162.7244 O.2     1  UNL1       -0.2749
     11 N         142.4780  143.0202  163.3715 N.am    1  UNL1       -0.2795
     12 C         141.3877  142.0583  163.0028 C.3     1  UNL1        0.0940
     13 C         140.8747  141.0808  164.0185 C.3     1  UNL1        0.0297
     14 C         141.4522  141.0653  165.4028 C.3     1  UNL1        0.0410
     15 C         142.5426  142.0273  165.7714 C.3     1  UNL1        0.0297
     16 C         143.0555  143.0046  164.7558 C.3     1  UNL1        0.0940
     17 C         141.6782  140.6678  166.8314 C.ar    1  UNL1       -0.0189
     18 C         142.5008  139.4549  167.1512 C.ar    1  UNL1       -0.0040
     19 C         142.7268  139.0574  168.5799 C.ar    1  UNL1       -0.0003
     20 C         142.1304  139.8727  169.6886 C.ar    1  UNL1       -0.0000
     21 C         141.3078  141.0856  169.3687 C.ar    1  UNL1       -0.0003
     22 C         141.0817  141.4832  167.9402 C.ar    1  UNL1       -0.0040
     23 C         140.4403  139.9654  165.5303 C.ar    1  UNL1       -0.0189
     24 C         139.2079  140.1725  166.3598 C.ar    1  UNL1       -0.0040
     25 C         138.1960  139.0726  166.4873 C.ar    1  UNL1       -0.0003
     26 C         138.4167  137.7655  165.7853 C.ar    1  UNL1       -0.0000
     27 C         139.6491  137.5583  164.9558 C.ar    1  UNL1       -0.0003
     28 C         140.6610  138.6583  164.8283 C.ar    1  UNL1       -0.0040
     29 N         140.6810  144.0596  156.8186 N.3     1  UNL1       -0.2962
     30 H         140.8903  143.1523  156.4021 H       1  UNL1        0.1235
     31 C         141.1229  145.1006  155.8332 C.3     1  UNL1        0.0768
     32 C         142.3142  144.8470  154.9578 C.3     1  UNL1        0.0220
     33 C         138.8745  148.9847  155.5035 C.ar    1  UNL1        0.1387
     34 C         139.7089  148.5013  154.3546 C.ar    1  UNL1        0.0366
     35 C         140.4584  147.2066  154.4645 C.ar    1  UNL1        0.0001
     36 C         140.3734  146.3953  155.7233 C.ar    1  UNL1       -0.0078
     37 C         139.5390  146.8788  156.8722 C.ar    1  UNL1        0.0001
     38 C         138.7896  148.1735  156.7623 C.ar    1  UNL1        0.0366
     39 C         138.8409  151.5806  155.6043 C.3     1  UNL1        0.2525
     40 O         138.1251  150.2794  155.3936 O.3     1  UNL1       -0.4714
@<TRIPOS>BOND
     1    39    40    1
     2    40    33    1
     3    33    34   ar
     4    34    35   ar
     5    35    36   ar
     6    36    31    1
     7    31    32    1
     8    31    29    1
     9     1    29    1
    10     1     2    1
    11     2     3    1
    12     3     4    1
    13     4     9    1
    14     9    10    2
    15     9    11   am
    16    11    12    1
    17    12    13    1
    18    13    14    1
    19    14    17    1
    20    17    18   ar
    21    18    19   ar
    22    19    20   ar
    23    20    21   ar
    24    21    22   ar
    25    14    23    1
    26    23    24   ar
    27    24    25   ar
    28    25    26   ar
    29    26    27   ar
    30    27    28   ar
    31    14    15    1
    32    15    16    1
    33     4     5    1
    34     5     6    1
    35     5     7    1
    36     5     8    1
    37    36    37   ar
    38    37    38   ar
    39    38    33   ar
    40     8     1    1
    41    16    11    1
    42    22    17   ar
    43    28    23   ar
    44    29    30    1
@<TRIPOS>MOLECULE
*****
 40 44 0 0 0
SMALL
GASTEIGER

@<TRIPOS>ATOM
      1 C         140.7982  144.7414  159.0040 C.3     1  UNL1        0.0542
      2 C         141.9666  143.8234  159.2091 C.3     1  UNL1        0.0162
      3 C         142.5665  143.6665  160.5750 C.3     1  UNL1        0.0104
      4 C         141.9979  144.4276  161.7357 C.3     1  UNL1        0.0768
      5 C         140.8295  145.3457  161.5307 C.3     1  UNL1        0.0095
      6 C         139.7378  146.3277  161.8368 C.3     1  UNL1        0.0005
      7 C         141.0502  145.5299  163.0028 C.3     1  UNL1        0.0005
      8 C         140.2297  145.5026  160.1648 C.3     1  UNL1        0.0162
      9 C         142.5978  144.2708  163.1016 C.2     1  UNL1        0.2251
     10 O         143.6547  145.2263  163.5708 O.2     1  UNL1       -0.2749
     11 N         142.1408  143.1585  163.9982 N.am    1  UNL1       -0.2795
     12 C         141.0840  142.2030  163.5289 C.3     1  UNL1        0.0940
     13 C         140.6270  141.0907  164.4255 C.3     1  UNL1        0.0297
     14 C         141.2268  140.9338  165.7914 C.3     1  UNL1        0.0410
     15 C         142.2837  141.8893  166.2606 C.3     1  UNL1        0.0297
     16 C         142.7407  143.0016  165.3640 C.3     1  UNL1        0.0940
     17 C         141.4916  140.3781  167.1592 C.ar    1  UNL1       -0.0189
     18 C         140.6416  140.8043  168.3193 C.ar    1  UNL1       -0.0040
     19 C         140.9064  140.2486  169.6872 C.ar    1  UNL1       -0.0003
     20 C         142.0210  139.2667  169.8950 C.ar    1  UNL1       -0.0000
     21 C         142.8710  138.8404  168.7349 C.ar    1  UNL1       -0.0003
     22 C         142.6063  139.3961  167.3670 C.ar    1  UNL1       -0.0040
     23 C         140.2619  139.7854  165.7971 C.ar    1  UNL1       -0.0189
     24 C         138.9584  139.9047  166.5295 C.ar    1  UNL1       -0.0040
     25 C         137.9935  138.7563  166.5353 C.ar    1  UNL1       -0.0003
     26 C         138.3322  137.4884  165.8086 C.ar    1  UNL1       -0.0000
     27 C         139.6357  137.3691  165.0763 C.ar    1  UNL1       -0.0003
     28 C         140.6006  138.5175  165.0705 C.ar    1  UNL1       -0.0040
     29 N         140.1984  144.8983  157.6382 N.3     1  UNL1       -0.2962
     30 H         139.2417  145.2257  157.7725 H       1  UNL1        0.1235
     31 C         140.1271  143.7216  156.7107 C.3     1  UNL1        0.0768
     32 C         141.2764  143.4166  155.7964 C.3     1  UNL1        0.0220
     33 C         136.4651  141.1065  156.6710 C.ar    1  UNL1        0.1387
     34 C         136.5638  142.2732  155.7333 C.ar    1  UNL1        0.0366
     35 C         137.7845  143.1448  155.7465 C.ar    1  UNL1        0.0001
     36 C         138.9064  142.8499  156.6974 C.ar    1  UNL1       -0.0078
     37 C         138.8077  141.6833  157.6351 C.ar    1  UNL1        0.0001
     38 C         137.5871  140.8116  157.6219 C.ar    1  UNL1        0.0366
     39 C         134.0144  140.6779  155.9225 C.3     1  UNL1        0.2525
     40 O         135.2445  140.2349  156.6577 O.3     1  UNL1       -0.4714
@<TRIPOS>BOND
     1    39    40    1
     2    40    33    1
     3    33    34   ar
     4    34    35   ar
     5    35    36   ar
     6    36    31    1
     7    31    32    1
     8    31    29    1
     9     1    29    1
    10     1     2    1
    11     2     3    1
    12     3     4    1
    13     4     9    1
    14     9    10    2
    15     9    11   am
    16    11    12    1
    17    12    13    1
    18    13    14    1
    19    14    17    1
    20    17    18   ar
    21    18    19   ar
    22    19    20   ar
    23    20    21   ar
    24    21    22   ar
    25    14    23    1
    26    23    24   ar
    27    24    25   ar
    28    25    26   ar
    29    26    27   ar
    30    27    28   ar
    31    14    15    1
    32    15    16    1
    33     4     5    1
    34     5     6    1
    35     5     7    1
    36     5     8    1
    37    36    37   ar
    38    37    38   ar
    39    38    33   ar
    40     8     1    1
    41    16    11    1
    42    22    17   ar
    43    28    23   ar
    44    29    30    1
@<TRIPOS>MOLECULE
*****
 40 44 0 0 0
SMALL
GASTEIGER

@<TRIPOS>ATOM
      1 C         141.5306  143.9266  158.1629 C.3     1  UNL1        0.0542
      2 C         140.7674  144.7022  159.1953 C.3     1  UNL1        0.0162
      3 C         141.2510  144.7392  160.6147 C.3     1  UNL1        0.0104
      4 C         142.4978  144.0005  161.0017 C.3     1  UNL1        0.0768
      5 C         143.2611  143.2248  159.9693 C.3     1  UNL1        0.0095
      6 C         144.3200  142.3574  159.3559 C.3     1  UNL1        0.0005
      7 C         144.1124  142.9606  161.1757 C.3     1  UNL1        0.0005
      8 C         142.7775  143.1878  158.5499 C.3     1  UNL1        0.0162
      9 C         142.9815  144.0375  162.4212 C.2     1  UNL1        0.2251
     10 O         144.0052  145.0514  162.8385 O.2     1  UNL1       -0.2749
     11 N         142.4415  143.0607  163.4232 N.am    1  UNL1       -0.2795
     12 C         141.4178  142.0468  163.0058 C.3     1  UNL1        0.0940
     13 C         140.8778  141.0699  164.0078 C.3     1  UNL1        0.0297
     14 C         141.3614  141.1069  165.4273 C.3     1  UNL1        0.0410
     15 C         142.3851  142.1208  165.8446 C.3     1  UNL1        0.0297
     16 C         142.9251  143.0976  164.8426 C.3     1  UNL1        0.0940
     17 C         141.5071  140.7485  166.8765 C.ar    1  UNL1       -0.0189
     18 C         142.4030  139.6161  167.2827 C.ar    1  UNL1       -0.0040
     19 C         142.5487  139.2578  168.7320 C.ar    1  UNL1       -0.0003
     20 C         141.7985  140.0318  169.7750 C.ar    1  UNL1       -0.0000
     21 C         140.9026  141.1642  169.3688 C.ar    1  UNL1       -0.0003
     22 C         140.7569  141.5226  167.9196 C.ar    1  UNL1       -0.0040
     23 C         140.3883  139.9686  165.5132 C.ar    1  UNL1       -0.0189
     24 C         140.7323  138.6405  164.9067 C.ar    1  UNL1       -0.0040
     25 C         139.7592  137.5022  164.9927 C.ar    1  UNL1       -0.0003
     26 C         138.4422  137.6920  165.6851 C.ar    1  UNL1       -0.0000
     27 C         138.0982  139.0201  166.2915 C.ar    1  UNL1       -0.0003
     28 C         139.0713  140.1584  166.2056 C.ar    1  UNL1       -0.0040
     29 N         141.0470  143.8896  156.7435 N.3     1  UNL1       -0.2962
     30 H         141.6513  144.5146  156.2101 H       1  UNL1        0.1235
     31 C         139.6335  144.2757  156.4225 C.3     1  UNL1        0.0768
     32 C         139.3078  145.6938  156.0580 C.3     1  UNL1        0.0220
     33 C         136.3704  141.1797  156.5528 C.ar    1  UNL1        0.1387
     34 C         137.5283  141.0894  157.5020 C.ar    1  UNL1        0.0366
     35 C         138.6160  142.1214  157.4585 C.ar    1  UNL1        0.0001
     36 C         138.5458  143.2437  156.4659 C.ar    1  UNL1       -0.0078
     37 C         137.3879  143.3340  155.5167 C.ar    1  UNL1        0.0001
     38 C         136.3002  142.3020  155.5601 C.ar    1  UNL1        0.0366
     39 C         134.2149  140.1387  155.5428 C.3     1  UNL1        0.2525
     40 O         135.2827  140.1477  156.5962 O.3     1  UNL1       -0.4714
@<TRIPOS>BOND
     1    39    40    1
     2    40    33    1
     3    33    34   ar
     4    34    35   ar
     5    35    36   ar
     6    36    31    1
     7    31    32    1
     8    31    29    1
     9     1    29    1
    10     1     2    1
    11     2     3    1
    12     3     4    1
    13     4     9    1
    14     9    10    2
    15     9    11   am
    16    11    12    1
    17    12    13    1
    18    13    14    1
    19    14    17    1
    20    17    18   ar
    21    18    19   ar
    22    19    20   ar
    23    20    21   ar
    24    21    22   ar
    25    14    23    1
    26    23    24   ar
    27    24    25   ar
    28    25    26   ar
    29    26    27   ar
    30    27    28   ar
    31    14    15    1
    32    15    16    1
    33     4     5    1
    34     5     6    1
    35     5     7    1
    36     5     8    1
    37    36    37   ar
    38    37    38   ar
    39    38    33   ar
    40     8     1    1
    41    16    11    1
    42    22    17   ar
    43    28    23   ar
    44    29    30    1
@<TRIPOS>MOLECULE
*****
 40 44 0 0 0
SMALL
GASTEIGER

@<TRIPOS>ATOM
      1 C         141.3558  143.9852  158.2874 C.3     1  UNL1        0.0542
      2 C         140.5998  144.7230  159.3523 C.3     1  UNL1        0.0162
      3 C         141.1222  144.7541  160.7581 C.3     1  UNL1        0.0104
      4 C         142.4006  144.0474  161.0989 C.3     1  UNL1        0.0768
      5 C         143.1567  143.3095  160.0340 C.3     1  UNL1        0.0095
      6 C         144.2227  142.4828  159.3782 C.3     1  UNL1        0.0005
      7 C         144.0493  143.0535  161.2119 C.3     1  UNL1        0.0005
      8 C         142.6343  143.2784  158.6282 C.3     1  UNL1        0.0162
      9 C         142.9231  144.0785  162.5047 C.2     1  UNL1        0.2251
     10 O         143.9608  145.0881  162.8970 O.2     1  UNL1       -0.2749
     11 N         142.4078  143.1000  163.5181 N.am    1  UNL1       -0.2795
     12 C         141.3701  142.0905  163.1258 C.3     1  UNL1        0.0940
     13 C         140.8548  141.1119  164.1392 C.3     1  UNL1        0.0297
     14 C         141.3772  141.1431  165.5450 C.3     1  UNL1        0.0410
     15 C         142.4149  142.1527  165.9373 C.3     1  UNL1        0.0297
     16 C         142.9302  143.1311  164.9238 C.3     1  UNL1        0.0940
     17 C         141.5614  140.7797  166.9885 C.ar    1  UNL1       -0.0189
     18 C         142.3498  139.5589  167.3599 C.ar    1  UNL1       -0.0040
     19 C         142.5340  139.1955  168.8036 C.ar    1  UNL1       -0.0003
     20 C         141.9300  140.0530  169.8758 C.ar    1  UNL1       -0.0000
     21 C         141.1416  141.2739  169.5044 C.ar    1  UNL1       -0.0003
     22 C         140.9573  141.6373  168.0608 C.ar    1  UNL1       -0.0040
     23 C         140.4035  140.0073  165.6540 C.ar    1  UNL1       -0.0189
     24 C         139.1612  140.1612  166.4804 C.ar    1  UNL1       -0.0040
     25 C         138.1874  139.0254  166.5894 C.ar    1  UNL1       -0.0003
     26 C         138.4561  137.7357  165.8720 C.ar    1  UNL1       -0.0000
     27 C         139.6984  137.5818  165.0456 C.ar    1  UNL1       -0.0003
     28 C         140.6721  138.7176  164.9366 C.ar    1  UNL1       -0.0040
     29 N         140.8334  143.9541  156.8817 N.3     1  UNL1       -0.2962
     30 H         140.3059  144.8162  156.7445 H       1  UNL1        0.1235
     31 C         139.9477  142.8288  156.4354 C.3     1  UNL1        0.0768
     32 C         139.2666  142.8945  155.1006 C.3     1  UNL1        0.0220
     33 C         139.3336  139.2558  159.1012 C.ar    1  UNL1        0.1387
     34 C         138.3916  140.4204  159.1792 C.ar    1  UNL1        0.0366
     35 C         138.5963  141.6114  158.2906 C.ar    1  UNL1        0.0001
     36 C         139.7430  141.6378  157.3240 C.ar    1  UNL1       -0.0078
     37 C         140.6850  140.4731  157.2461 C.ar    1  UNL1        0.0001
     38 C         140.4803  139.2821  158.1347 C.ar    1  UNL1        0.0366
     39 C         138.7097  138.2571  161.4171 C.3     1  UNL1        0.2525
     40 O         139.1289  138.0648  159.9898 O.3     1  UNL1       -0.4714
@<TRIPOS>BOND
     1    39    40    1
     2    40    33    1
     3    33    34   ar
     4    34    35   ar
     5    35    36   ar
     6    36    31    1
     7    31    32    1
     8    31    29    1
     9     1    29    1
    10     1     2    1
    11     2     3    1
    12     3     4    1
    13     4     9    1
    14     9    10    2
    15     9    11   am
    16    11    12    1
    17    12    13    1
    18    13    14    1
    19    14    17    1
    20    17    18   ar
    21    18    19   ar
    22    19    20   ar
    23    20    21   ar
    24    21    22   ar
    25    14    23    1
    26    23    24   ar
    27    24    25   ar
    28    25    26   ar
    29    26    27   ar
    30    27    28   ar
    31    14    15    1
    32    15    16    1
    33     4     5    1
    34     5     6    1
    35     5     7    1
    36     5     8    1
    37    36    37   ar
    38    37    38   ar
    39    38    33   ar
    40     8     1    1
    41    16    11    1
    42    22    17   ar
    43    28    23   ar
    44    29    30    1
@<TRIPOS>MOLECULE
*****
 40 44 0 0 0
SMALL
GASTEIGER

@<TRIPOS>ATOM
      1 C         139.2699  140.4420  163.9574 C.3     1  UNL1        0.0542
      2 C         140.4781  140.3960  163.0697 C.3     1  UNL1        0.0162
      3 C         140.9133  141.6268  162.3309 C.3     1  UNL1        0.0104
      4 C         140.1403  142.9036  162.4799 C.3     1  UNL1        0.0768
      5 C         138.9320  142.9496  163.3677 C.3     1  UNL1        0.0095
      6 C         137.7299  143.4879  164.0854 C.3     1  UNL1        0.0005
      7 C         138.9497  144.3673  162.8782 C.3     1  UNL1        0.0005
      8 C         138.4968  141.7188  164.1064 C.3     1  UNL1        0.0162
      9 C         140.5755  144.1344  161.7412 C.2     1  UNL1        0.2251
     10 O         141.3089  145.2240  162.4658 O.2     1  UNL1       -0.2749
     11 N         140.2773  144.2757  160.2780 N.am    1  UNL1       -0.2795
     12 C         139.5440  143.1861  159.5535 C.3     1  UNL1        0.0940
     13 C         139.2458  143.3273  158.0902 C.3     1  UNL1        0.0297
     14 C         139.6810  144.5582  157.3515 C.3     1  UNL1        0.0410
     15 C         140.4144  145.6478  158.0761 C.3     1  UNL1        0.0297
     16 C         140.7125  145.5065  159.5393 C.3     1  UNL1        0.0940
     17 C         139.8862  145.5275  156.2253 C.ar    1  UNL1       -0.0189
     18 C         140.8955  145.2318  155.1558 C.ar    1  UNL1       -0.0040
     19 C         141.1007  146.2012  154.0296 C.ar    1  UNL1       -0.0003
     20 C         140.2968  147.4661  153.9729 C.ar    1  UNL1       -0.0000
     21 C         139.2875  147.7618  155.0425 C.ar    1  UNL1       -0.0003
     22 C         139.0822  146.7926  156.1687 C.ar    1  UNL1       -0.0040
     23 C         139.0189  143.8052  156.2358 C.ar    1  UNL1       -0.0189
     24 C         137.6848  144.2532  155.7168 C.ar    1  UNL1       -0.0040
     25 C         137.0227  143.5002  154.6012 C.ar    1  UNL1       -0.0003
     26 C         137.6948  142.2992  154.0045 C.ar    1  UNL1       -0.0000
     27 C         139.0289  141.8512  154.5235 C.ar    1  UNL1       -0.0003
     28 C         139.6910  142.6042  155.6391 C.ar    1  UNL1       -0.0040
     29 N         138.8347  139.2111  164.6961 N.3     1  UNL1       -0.2962
     30 H         137.8769  139.0161  164.4047 H       1  UNL1        0.1235
     31 C         138.8430  139.1944  166.1959 C.3     1  UNL1        0.0768
     32 C         137.7250  138.5316  166.9447 C.3     1  UNL1        0.0220
     33 C         142.2219  141.1324  168.4492 C.ar    1  UNL1        0.1387
     34 C         142.5166  140.1573  167.3481 C.ar    1  UNL1        0.0366
     35 C         141.3903  139.5113  166.5970 C.ar    1  UNL1        0.0001
     36 C         139.9693  139.8404  166.9470 C.ar    1  UNL1       -0.0078
     37 C         139.6746  140.8154  168.0480 C.ar    1  UNL1        0.0001
     38 C         140.8009  141.4615  168.7991 C.ar    1  UNL1        0.0366
     39 C         143.0566  142.8194  170.2400 C.3     1  UNL1        0.2525
     40 O         143.3482  141.7784  169.2002 O.3     1  UNL1       -0.4714
@<TRIPOS>BOND
     1    39    40    1
     2    40    33    1
     3    33    34   ar
     4    34    35   ar
     5    35    36   ar
     6    36    31    1
     7    31    32    1
     8    31    29    1
     9     1    29    1
    10     1     2    1
    11     2     3    1
    12     3     4    1
    13     4     9    1
    14     9    10    2
    15     9    11   am
    16    11    12    1
    17    12    13    1
    18    13    14    1
    19    14    17    1
    20    17    18   ar
    21    18    19   ar
    22    19    20   ar
    23    20    21   ar
    24    21    22   ar
    25    14    23    1
    26    23    24   ar
    27    24    25   ar
    28    25    26   ar
    29    26    27   ar
    30    27    28   ar
    31    14    15    1
    32    15    16    1
    33     4     5    1
    34     5     6    1
    35     5     7    1
    36     5     8    1
    37    36    37   ar
    38    37    38   ar
    39    38    33   ar
    40     8     1    1
    41    16    11    1
    42    22    17   ar
    43    28    23   ar
    44    29    30    1
@<TRIPOS>MOLECULE
*****
 40 44 0 0 0
SMALL
GASTEIGER

@<TRIPOS>ATOM
      1 C         141.2821  143.5853  157.7933 C.3     1  UNL1        0.0542
      2 C         141.9474  144.5055  158.7734 C.3     1  UNL1        0.0162
      3 C         141.3339  144.7344  160.1229 C.3     1  UNL1        0.0104
      4 C         140.0550  144.0431  160.4923 C.3     1  UNL1        0.0768
      5 C         139.3895  143.1229  159.5122 C.3     1  UNL1        0.0095
      6 C         138.3906  142.1670  158.9306 C.3     1  UNL1        0.0005
      7 C         138.4291  143.0199  160.6597 C.3     1  UNL1        0.0005
      8 C         140.0031  142.8940  158.1627 C.3     1  UNL1        0.0162
      9 C         139.4414  144.2720  161.8418 C.2     1  UNL1        0.2251
     10 O         138.4499  145.3807  162.0366 O.2     1  UNL1       -0.2749
     11 N         139.8193  143.3923  162.9965 N.am    1  UNL1       -0.2795
     12 C         140.8107  142.2837  162.8016 C.3     1  UNL1        0.0940
     13 C         141.1886  141.4039  163.9563 C.3     1  UNL1        0.0297
     14 C         140.5751  141.6328  165.3058 C.3     1  UNL1        0.0410
     15 C         139.5836  142.7415  165.5006 C.3     1  UNL1        0.0297
     16 C         139.2057  143.6212  164.3460 C.3     1  UNL1        0.0940
     17 C         140.2689  141.4553  166.7634 C.ar    1  UNL1       -0.0189
     18 C         140.6751  142.5106  167.7491 C.ar    1  UNL1       -0.0040
     19 C         140.3690  142.3330  169.2067 C.ar    1  UNL1       -0.0003
     20 C         139.6566  141.1003  169.6788 C.ar    1  UNL1       -0.0000
     21 C         139.2504  140.0451  168.6931 C.ar    1  UNL1       -0.0003
     22 C         139.5565  140.2225  167.2355 C.ar    1  UNL1       -0.0040
     23 C         141.4602  140.4626  165.6172 C.ar    1  UNL1       -0.0189
     24 C         142.5382  140.5919  166.6521 C.ar    1  UNL1       -0.0040
     25 C         143.4233  139.4217  166.9635 C.ar    1  UNL1       -0.0003
     26 C         143.2304  138.1219  166.2399 C.ar    1  UNL1       -0.0000
     27 C         142.1524  137.9925  165.2050 C.ar    1  UNL1       -0.0003
     28 C         141.2673  139.1628  164.8936 C.ar    1  UNL1       -0.0040
     29 N         141.8956  143.3564  156.4438 N.3     1  UNL1       -0.2962
     30 H         141.1267  143.3063  155.7754 H       1  UNL1        0.1235
     31 C         142.7557  142.1508  156.2057 C.3     1  UNL1        0.0768
     32 C         143.5554  142.0379  154.9417 C.3     1  UNL1        0.0220
     33 C         142.9366  138.8726  159.2832 C.ar    1  UNL1        0.1387
     34 C         143.8660  140.0458  159.3815 C.ar    1  UNL1        0.0366
     35 C         143.8057  141.1386  158.3557 C.ar    1  UNL1        0.0001
     36 C         142.8160  141.0581  157.2315 C.ar    1  UNL1       -0.0078
     37 C         141.8865  139.8849  157.1331 C.ar    1  UNL1        0.0001
     38 C         141.9468  138.7922  158.1589 C.ar    1  UNL1        0.0366
     39 C         143.6572  138.0293  161.6325 C.3     1  UNL1        0.2525
     40 O         142.9969  137.7799  160.3090 O.3     1  UNL1       -0.4714
@<TRIPOS>BOND
     1    39    40    1
     2    40    33    1
     3    33    34   ar
     4    34    35   ar
     5    35    36   ar
     6    36    31    1
     7    31    32    1
     8    31    29    1
     9     1    29    1
    10     1     2    1
    11     2     3    1
    12     3     4    1
    13     4     9    1
    14     9    10    2
    15     9    11   am
    16    11    12    1
    17    12    13    1
    18    13    14    1
    19    14    17    1
    20    17    18   ar
    21    18    19   ar
    22    19    20   ar
    23    20    21   ar
    24    21    22   ar
    25    14    23    1
    26    23    24   ar
    27    24    25   ar
    28    25    26   ar
    29    26    27   ar
    30    27    28   ar
    31    14    15    1
    32    15    16    1
    33     4     5    1
    34     5     6    1
    35     5     7    1
    36     5     8    1
    37    36    37   ar
    38    37    38   ar
    39    38    33   ar
    40     8     1    1
    41    16    11    1
    42    22    17   ar
    43    28    23   ar
    44    29    30    1
@<TRIPOS>MOLECULE
*****
 40 44 0 0 0
SMALL
GASTEIGER

@<TRIPOS>ATOM
      1 C         140.4841  142.9380  165.9634 C.3     1  UNL1        0.0542
      2 C         141.7612  143.2892  165.2594 C.3     1  UNL1        0.0162
      3 C         141.7205  144.0458  163.9648 C.3     1  UNL1        0.0104
      4 C         140.4026  144.4512  163.3742 C.3     1  UNL1        0.0768
      5 C         139.1254  144.1000  164.0782 C.3     1  UNL1        0.0095
      6 C         137.6570  143.9994  164.3675 C.3     1  UNL1        0.0005
      7 C         138.5747  144.8216  162.8841 C.3     1  UNL1        0.0005
      8 C         139.1662  143.3434  165.3728 C.3     1  UNL1        0.0162
      9 C         140.3618  145.2077  162.0796 C.2     1  UNL1        0.2251
     10 O         140.0444  146.6738  162.0774 O.2     1  UNL1       -0.2749
     11 N         140.6385  144.4983  160.7873 N.am    1  UNL1       -0.2795
     12 C         140.9559  143.0323  160.7896 C.3     1  UNL1        0.0940
     13 C         141.2326  142.3228  159.4972 C.3     1  UNL1        0.0297
     14 C         141.1918  143.0794  158.2026 C.3     1  UNL1        0.0410
     15 C         140.8744  144.5454  158.2004 C.3     1  UNL1        0.0297
     16 C         140.5977  145.2549  159.4927 C.3     1  UNL1        0.0940
     17 C         141.2708  143.3607  156.7314 C.ar    1  UNL1       -0.0189
     18 C         140.1627  142.9180  155.8226 C.ar    1  UNL1       -0.0040
     19 C         140.2417  143.1994  154.3513 C.ar    1  UNL1       -0.0003
     20 C         141.4288  143.9234  153.7889 C.ar    1  UNL1       -0.0000
     21 C         142.5369  144.3662  154.6977 C.ar    1  UNL1       -0.0003
     22 C         142.4580  144.0849  156.1690 C.ar    1  UNL1       -0.0040
     23 C         141.5367  141.7110  157.6940 C.ar    1  UNL1       -0.0189
     24 C         142.9351  141.4088  157.2435 C.ar    1  UNL1       -0.0040
     25 C         143.2800  140.0405  156.7349 C.ar    1  UNL1       -0.0003
     26 C         142.2263  138.9744  156.6766 C.ar    1  UNL1       -0.0000
     27 C         140.8279  139.2767  157.1270 C.ar    1  UNL1       -0.0003
     28 C         140.4830  140.6450  157.6357 C.ar    1  UNL1       -0.0040
     29 N         140.5249  142.1815  167.2580 N.3     1  UNL1       -0.2962
     30 H         141.5007  142.1570  167.5541 H       1  UNL1        0.1235
     31 C         140.0185  140.7709  167.3186 C.3     1  UNL1        0.0768
     32 C         139.5568  140.1952  168.6245 C.3     1  UNL1        0.0220
     33 C         139.8844  138.2660  163.5826 C.ar    1  UNL1        0.1387
     34 C         138.6231  138.8672  164.1281 C.ar    1  UNL1        0.0366
     35 C         138.6678  139.7022  165.3734 C.ar    1  UNL1        0.0001
     36 C         139.9738  139.9359  166.0732 C.ar    1  UNL1       -0.0078
     37 C         141.2351  139.3346  165.5277 C.ar    1  UNL1        0.0001
     38 C         141.1904  138.4997  164.2824 C.ar    1  UNL1        0.0366
     39 C         139.4662  138.0581  161.0268 C.3     1  UNL1        0.2525
     40 O         139.8397  137.4310  162.3373 O.3     1  UNL1       -0.4714
@<TRIPOS>BOND
     1    39    40    1
     2    40    33    1
     3    33    34   ar
     4    34    35   ar
     5    35    36   ar
     6    36    31    1
     7    31    32    1
     8    31    29    1
     9     1    29    1
    10     1     2    1
    11     2     3    1
    12     3     4    1
    13     4     9    1
    14     9    10    2
    15     9    11   am
    16    11    12    1
    17    12    13    1
    18    13    14    1
    19    14    17    1
    20    17    18   ar
    21    18    19   ar
    22    19    20   ar
    23    20    21   ar
    24    21    22   ar
    25    14    23    1
    26    23    24   ar
    27    24    25   ar
    28    25    26   ar
    29    26    27   ar
    30    27    28   ar
    31    14    15    1
    32    15    16    1
    33     4     5    1
    34     5     6    1
    35     5     7    1
    36     5     8    1
    37    36    37   ar
    38    37    38   ar
    39    38    33   ar
    40     8     1    1
    41    16    11    1
    42    22    17   ar
    43    28    23   ar
    44    29    30    1
