@<TRIPOS>MOLECULE
*****
 36 41 0 0 0
SMALL
GASTEIGER

@<TRIPOS>ATOM
      1 C         139.4862  140.0167  160.9410 C.3     1  UNL1        0.0722
      2 C         139.2572  140.9252  159.7696 C.ar    1  UNL1        0.1246
      3 N         138.1993  140.7598  158.7192 N.ar    1  UNL1       -0.2305
      4 C         138.3341  141.8911  157.7433 C.ar    1  UNL1        0.1015
      5 C         137.5652  142.2456  156.5053 C.ar    1  UNL1        0.0548
      6 C         137.9375  143.4647  155.7145 C.ar    1  UNL1        0.0046
      7 C         139.0787  144.3292  156.1619 C.ar    1  UNL1        0.0018
      8 C         139.8476  143.9747  157.4001 C.ar    1  UNL1        0.0191
      9 C         139.4753  142.7556  158.1908 C.ar    1  UNL1        0.0827
     10 N         140.0458  142.1587  159.4431 N.ar    1  UNL1       -0.2935
     11 C         141.2020  142.7002  160.2306 C.ar    1  UNL1        0.0703
     12 C         142.6076  142.4195  159.7885 C.ar    1  UNL1        0.0383
     13 C         143.7638  142.9610  160.5759 C.ar    1  UNL1        0.1004
     14 N         143.5143  143.7831  161.8054 N.ar    1  UNL1       -0.2414
     15 C         142.1087  144.0637  162.2476 C.ar    1  UNL1        0.1122
     16 C         141.8593  144.8859  163.4772 C.ar    1  UNL1        0.1578
     17 F         143.0154  145.4274  164.2646 F       1  UNL1       -0.2026
     18 C         140.4536  145.1666  163.9193 C.ar    1  UNL1        0.0335
     19 C         139.2975  144.6251  163.1318 C.ar    1  UNL1        0.0321
     20 C         139.5469  143.8030  161.9023 C.ar    1  UNL1        0.1431
     21 F         138.3292  143.4687  161.4248 F       1  UNL1       -0.2041
     22 C         140.9525  143.5223  161.4601 C.ar    1  UNL1        0.0635
     23 C         136.4240  141.3811  156.0578 C.ar    1  UNL1        0.1647
     24 N         136.4742  139.8979  155.8397 N.ar    1  UNL1       -0.1288
     25 N         135.1134  139.4482  155.3970 N.ar    1  UNL1       -0.1258
     26 C         134.2221  140.6534  155.3415 C.ar    1  UNL1        0.1992
     27 N         135.0321  141.8480  155.7499 N.ar    1  UNL1       -0.3187
     28 H         134.7072  142.7757  155.8060 H       1  UNL1        0.1690
     29 C         139.4510  145.5483  155.3712 C.ar    1  UNL1        0.0038
     30 C         140.3664  145.4250  154.1893 C.ar    1  UNL1        0.0207
     31 C         140.7386  146.6441  153.3986 C.ar    1  UNL1        0.0996
     32 N         140.1955  147.9865  153.7898 N.ar    1  UNL1       -0.2335
     33 C         139.2802  148.1098  154.9716 C.ar    1  UNL1        0.1492
     34 C         138.9079  146.8907  155.7624 C.ar    1  UNL1        0.0297
     35 C         138.7371  149.4522  155.3628 C.1     1  UNL1        0.1198
     36 N         138.1939  150.7946  155.7540 N.1     1  UNL1       -0.1893
@<TRIPOS>BOND
     1     1     2    1
     2     2     3   ar
     3     3     4   ar
     4     4     5   ar
     5     5    23    1
     6    23    24   ar
     7    24    25   ar
     8    25    26   ar
     9    26    27   ar
    10     5     6   ar
    11     6     7   ar
    12     7    29    1
    13    29    30   ar
    14    30    31   ar
    15    31    32   ar
    16    32    33   ar
    17    33    35    1
    18    35    36    3
    19    33    34   ar
    20     7     8   ar
    21     8     9   ar
    22     9    10   ar
    23    10    11    1
    24    11    12   ar
    25    12    13   ar
    26    13    14   ar
    27    14    15   ar
    28    15    16   ar
    29    16    17    1
    30    16    18   ar
    31    18    19   ar
    32    19    20   ar
    33    20    21    1
    34    20    22   ar
    35    10     2   ar
    36    22    11   ar
    37     9     4   ar
    38    22    15   ar
    39    27    23   ar
    40    34    29   ar
    41    27    28    1
@<TRIPOS>MOLECULE
*****
 36 41 0 0 0
SMALL
GASTEIGER

@<TRIPOS>ATOM
      1 C         141.4036  142.4842  160.2244 C.3     1  UNL1        0.0722
      2 C         141.7902  141.3255  159.3539 C.ar    1  UNL1        0.1246
      3 N         142.8216  141.3463  158.2650 N.ar    1  UNL1       -0.2305
      4 C         142.8821  139.9762  157.6575 C.ar    1  UNL1        0.1015
      5 C         143.7139  139.4065  156.5469 C.ar    1  UNL1        0.0548
      6 C         143.5517  137.9692  156.1496 C.ar    1  UNL1        0.0046
      7 C         142.5576  137.1016  156.8630 C.ar    1  UNL1        0.0018
      8 C         141.7258  137.6712  157.9737 C.ar    1  UNL1        0.0191
      9 C         141.8880  139.1085  158.3709 C.ar    1  UNL1        0.0827
     10 N         141.2132  139.9424  159.4193 N.ar    1  UNL1       -0.2935
     11 C         140.1482  139.4753  160.3669 C.ar    1  UNL1        0.0703
     12 C         138.7010  139.6609  160.0191 C.ar    1  UNL1        0.0383
     13 C         137.6360  139.1938  160.9666 C.ar    1  UNL1        0.1004
     14 N         138.0184  138.5410  162.2618 N.ar    1  UNL1       -0.2414
     15 C         139.4657  138.3554  162.6095 C.ar    1  UNL1        0.1122
     16 C         139.8480  137.7025  163.9048 C.ar    1  UNL1        0.1578
     17 F         138.7831  137.2354  164.8523 F       1  UNL1       -0.2026
     18 C         141.2953  137.5169  164.2526 C.ar    1  UNL1        0.0335
     19 C         142.3602  137.9840  163.3050 C.ar    1  UNL1        0.0321
     20 C         141.9779  138.6368  162.0098 C.ar    1  UNL1        0.1431
     21 F         143.1378  138.9394  161.3890 F       1  UNL1       -0.2041
     22 C         140.5306  138.8225  161.6621 C.ar    1  UNL1        0.0635
     23 C         144.7080  140.2742  155.8334 C.ar    1  UNL1        0.1647
     24 N         144.4033  141.2324  154.7204 N.ar    1  UNL1       -0.1288
     25 N         145.6883  141.8863  154.3069 N.ar    1  UNL1       -0.1258
     26 C         146.7873  141.3323  155.1644 C.ar    1  UNL1        0.1992
     27 N         146.1814  140.3360  156.1078 N.ar    1  UNL1       -0.3187
     28 H         146.6658  139.8142  156.7878 H       1  UNL1        0.1690
     29 C         142.3953  135.6642  156.4658 C.ar    1  UNL1        0.0038
     30 C         141.3739  135.2814  155.4361 C.ar    1  UNL1        0.0207
     31 C         141.2117  133.8441  155.0389 C.ar    1  UNL1        0.0996
     32 N         142.0708  132.7896  155.6713 N.ar    1  UNL1       -0.2335
     33 C         143.0921  133.1724  156.7009 C.ar    1  UNL1        0.1492
     34 C         143.2545  134.6098  157.0982 C.ar    1  UNL1        0.0297
     35 C         143.9513  132.1180  157.3334 C.1     1  UNL1        0.1198
     36 N         144.8105  131.0634  157.9658 N.1     1  UNL1       -0.1893
@<TRIPOS>BOND
     1     1     2    1
     2     2     3   ar
     3     3     4   ar
     4     4     5   ar
     5     5    23    1
     6    23    24   ar
     7    24    25   ar
     8    25    26   ar
     9    26    27   ar
    10     5     6   ar
    11     6     7   ar
    12     7    29    1
    13    29    30   ar
    14    30    31   ar
    15    31    32   ar
    16    32    33   ar
    17    33    35    1
    18    35    36    3
    19    33    34   ar
    20     7     8   ar
    21     8     9   ar
    22     9    10   ar
    23    10    11    1
    24    11    12   ar
    25    12    13   ar
    26    13    14   ar
    27    14    15   ar
    28    15    16   ar
    29    16    17    1
    30    16    18   ar
    31    18    19   ar
    32    19    20   ar
    33    20    21    1
    34    20    22   ar
    35    10     2   ar
    36    22    11   ar
    37     9     4   ar
    38    22    15   ar
    39    27    23   ar
    40    34    29   ar
    41    27    28    1
@<TRIPOS>MOLECULE
*****
 36 41 0 0 0
SMALL
GASTEIGER

@<TRIPOS>ATOM
      1 C         139.3805  141.2614  159.5453 C.3     1  UNL1        0.0722
      2 C         139.6390  140.1243  158.6018 C.ar    1  UNL1        0.1246
      3 N         138.8748  139.8303  157.3451 N.ar    1  UNL1       -0.2305
      4 C         139.4706  138.6058  156.7159 C.ar    1  UNL1        0.1015
      5 C         139.1282  137.8524  155.4650 C.ar    1  UNL1        0.0548
      6 C         139.9183  136.6362  155.0818 C.ar    1  UNL1        0.0046
      7 C         141.0507  136.1735  155.9498 C.ar    1  UNL1        0.0018
      8 C         141.3931  136.9270  157.2009 C.ar    1  UNL1        0.0191
      9 C         140.6030  138.1431  157.5839 C.ar    1  UNL1        0.0827
     10 N         140.7071  139.0816  158.7495 N.ar    1  UNL1       -0.2935
     11 C         141.7044  138.9929  159.8665 C.ar    1  UNL1        0.0703
     12 C         143.1306  139.3940  159.6322 C.ar    1  UNL1        0.0383
     13 C         144.1278  139.3053  160.7492 C.ar    1  UNL1        0.1004
     14 N         143.6988  138.8155  162.1005 N.ar    1  UNL1       -0.2414
     15 C         142.2725  138.4144  162.3347 C.ar    1  UNL1        0.1122
     16 C         141.8435  137.9245  163.6861 C.ar    1  UNL1        0.1578
     17 F         142.8407  137.8358  164.8031 F       1  UNL1       -0.2026
     18 C         140.4172  137.5234  163.9204 C.ar    1  UNL1        0.0335
     19 C         139.4200  137.6121  162.8033 C.ar    1  UNL1        0.0321
     20 C         139.8491  138.1019  161.4521 C.ar    1  UNL1        0.1431
     21 F         138.7450  138.0674  160.6760 F       1  UNL1       -0.2041
     22 C         141.2753  138.5031  161.2178 C.ar    1  UNL1        0.0635
     23 C         137.9957  138.3151  154.5970 C.ar    1  UNL1        0.1647
     24 N         137.9046  138.1575  153.1081 N.ar    1  UNL1       -0.1288
     25 N         136.6081  138.7617  152.6565 N.ar    1  UNL1       -0.1258
     26 C         135.8978  139.2927  153.8662 C.ar    1  UNL1        0.1992
     27 N         136.7554  139.0168  155.0655 N.ar    1  UNL1       -0.3187
     28 H         136.5417  139.2544  155.9967 H       1  UNL1        0.1690
     29 C         141.8408  134.9574  155.5667 C.ar    1  UNL1        0.0038
     30 C         141.6674  134.3479  154.2072 C.ar    1  UNL1        0.0207
     31 C         142.4575  133.1318  153.8241 C.ar    1  UNL1        0.0996
     32 N         143.4210  132.5251  154.8006 N.ar    1  UNL1       -0.2335
     33 C         143.5944  133.1345  156.1601 C.ar    1  UNL1        0.1492
     34 C         142.8043  134.3507  156.5433 C.ar    1  UNL1        0.0297
     35 C         144.5579  132.5279  157.1366 C.1     1  UNL1        0.1198
     36 N         145.5215  131.9212  158.1132 N.1     1  UNL1       -0.1893
@<TRIPOS>BOND
     1     1     2    1
     2     2     3   ar
     3     3     4   ar
     4     4     5   ar
     5     5    23    1
     6    23    24   ar
     7    24    25   ar
     8    25    26   ar
     9    26    27   ar
    10     5     6   ar
    11     6     7   ar
    12     7    29    1
    13    29    30   ar
    14    30    31   ar
    15    31    32   ar
    16    32    33   ar
    17    33    35    1
    18    35    36    3
    19    33    34   ar
    20     7     8   ar
    21     8     9   ar
    22     9    10   ar
    23    10    11    1
    24    11    12   ar
    25    12    13   ar
    26    13    14   ar
    27    14    15   ar
    28    15    16   ar
    29    16    17    1
    30    16    18   ar
    31    18    19   ar
    32    19    20   ar
    33    20    21    1
    34    20    22   ar
    35    10     2   ar
    36    22    11   ar
    37     9     4   ar
    38    22    15   ar
    39    27    23   ar
    40    34    29   ar
    41    27    28    1
@<TRIPOS>MOLECULE
*****
 36 41 0 0 0
SMALL
GASTEIGER

@<TRIPOS>ATOM
      1 C         140.8105  139.2836  161.1717 C.3     1  UNL1        0.0722
      2 C         141.6943  139.4748  159.9748 C.ar    1  UNL1        0.1246
      3 N         141.9593  138.4591  158.9034 N.ar    1  UNL1       -0.2305
      4 C         142.8971  139.0717  157.9056 C.ar    1  UNL1        0.1015
      5 C         143.5052  138.5401  156.6418 C.ar    1  UNL1        0.0548
      6 C         144.4278  139.4029  155.8326 C.ar    1  UNL1        0.0046
      7 C         144.7422  140.7972  156.2875 C.ar    1  UNL1        0.0018
      8 C         144.1340  141.3288  157.5515 C.ar    1  UNL1        0.0191
      9 C         143.2115  140.4661  158.3605 C.ar    1  UNL1        0.0827
     10 N         142.4681  140.7152  159.6394 N.ar    1  UNL1       -0.2935
     11 C         142.4941  141.9823  160.4418 C.ar    1  UNL1        0.0703
     12 C         141.6203  143.1366  160.0493 C.ar    1  UNL1        0.0383
     13 C         141.6462  144.4037  160.8517 C.ar    1  UNL1        0.1004
     14 N         142.5459  144.5164  162.0466 N.ar    1  UNL1       -0.2414
     15 C         143.4197  143.3620  162.4391 C.ar    1  UNL1        0.1122
     16 C         144.3194  143.4748  163.6341 C.ar    1  UNL1        0.1578
     17 F         144.3453  144.7418  164.4365 F       1  UNL1       -0.2026
     18 C         145.1931  142.3205  164.0266 C.ar    1  UNL1        0.0335
     19 C         145.1672  141.0534  163.2241 C.ar    1  UNL1        0.0321
     20 C         144.2675  140.9406  162.0292 C.ar    1  UNL1        0.1431
     21 F         144.4678  139.7032  161.5281 F       1  UNL1       -0.2041
     22 C         143.3937  142.0950  161.6367 C.ar    1  UNL1        0.0635
     23 C         143.1908  137.1458  156.1869 C.ar    1  UNL1        0.1647
     24 N         144.1246  136.2237  155.4606 N.ar    1  UNL1       -0.1288
     25 N         143.3983  134.9367  155.2032 N.ar    1  UNL1       -0.1258
     26 C         142.0155  135.0635  155.7705 C.ar    1  UNL1        0.1992
     27 N         141.8872  136.4287  156.3784 N.ar    1  UNL1       -0.3187
     28 H         141.0878  136.7906  156.8247 H       1  UNL1        0.1690
     29 C         145.6648  141.6599  155.4785 C.ar    1  UNL1        0.0038
     30 C         145.1151  142.8094  154.6869 C.ar    1  UNL1        0.0207
     31 C         146.0377  143.6721  153.8779 C.ar    1  UNL1        0.0996
     32 N         147.5099  143.3854  153.8604 N.ar    1  UNL1       -0.2335
     33 C         148.0595  142.2359  154.6519 C.ar    1  UNL1        0.1492
     34 C         147.1370  141.3731  155.4610 C.ar    1  UNL1        0.0297
     35 C         149.5318  141.9491  154.6344 C.1     1  UNL1        0.1198
     36 N         151.0041  141.6623  154.6170 N.1     1  UNL1       -0.1893
@<TRIPOS>BOND
     1     1     2    1
     2     2     3   ar
     3     3     4   ar
     4     4     5   ar
     5     5    23    1
     6    23    24   ar
     7    24    25   ar
     8    25    26   ar
     9    26    27   ar
    10     5     6   ar
    11     6     7   ar
    12     7    29    1
    13    29    30   ar
    14    30    31   ar
    15    31    32   ar
    16    32    33   ar
    17    33    35    1
    18    35    36    3
    19    33    34   ar
    20     7     8   ar
    21     8     9   ar
    22     9    10   ar
    23    10    11    1
    24    11    12   ar
    25    12    13   ar
    26    13    14   ar
    27    14    15   ar
    28    15    16   ar
    29    16    17    1
    30    16    18   ar
    31    18    19   ar
    32    19    20   ar
    33    20    21    1
    34    20    22   ar
    35    10     2   ar
    36    22    11   ar
    37     9     4   ar
    38    22    15   ar
    39    27    23   ar
    40    34    29   ar
    41    27    28    1
@<TRIPOS>MOLECULE
*****
 36 41 0 0 0
SMALL
GASTEIGER

@<TRIPOS>ATOM
      1 C         143.3748  140.1770  162.8528 C.3     1  UNL1        0.0722
      2 C         142.5903  140.4101  161.5958 C.ar    1  UNL1        0.1246
      3 N         142.5029  139.4764  160.4251 N.ar    1  UNL1       -0.2305
      4 C         141.6140  140.1072  159.3945 C.ar    1  UNL1        0.1015
      5 C         141.1656  139.6473  158.0390 C.ar    1  UNL1        0.0548
      6 C         140.2553  140.5110  157.2172 C.ar    1  UNL1        0.0046
      7 C         139.7934  141.8346  157.7509 C.ar    1  UNL1        0.0018
      8 C         140.2419  142.2944  159.1065 C.ar    1  UNL1        0.0191
      9 C         141.1522  141.4307  159.9282 C.ar    1  UNL1        0.0827
     10 N         141.7556  141.6180  161.2887 N.ar    1  UNL1       -0.2935
     11 C         141.5587  142.8048  162.1848 C.ar    1  UNL1        0.0703
     12 C         142.6171  143.8643  162.2695 C.ar    1  UNL1        0.0383
     13 C         142.4203  145.0510  163.1655 C.ar    1  UNL1        0.1004
     14 N         141.1651  145.1782  163.9768 N.ar    1  UNL1       -0.2414
     15 C         140.1067  144.1187  163.8920 C.ar    1  UNL1        0.1122
     16 C         138.8514  144.2460  164.7034 C.ar    1  UNL1        0.1578
     17 F         138.6546  145.4327  165.5994 F       1  UNL1       -0.2026
     18 C         137.7930  143.1865  164.6186 C.ar    1  UNL1        0.0335
     19 C         137.9899  141.9997  163.7225 C.ar    1  UNL1        0.0321
     20 C         139.2451  141.8725  162.9113 C.ar    1  UNL1        0.1431
     21 F         139.1261  140.7189  162.2202 F       1  UNL1       -0.2041
     22 C         140.3035  142.9320  162.9960 C.ar    1  UNL1        0.0635
     23 C         141.6275  138.3238  157.5053 C.ar    1  UNL1        0.1647
     24 N         140.8202  137.3837  156.6600 N.ar    1  UNL1       -0.1288
     25 N         141.6715  136.1869  156.3554 N.ar    1  UNL1       -0.1258
     26 C         143.0050  136.3872  157.0125 C.ar    1  UNL1        0.1992
     27 N         142.9778  137.7079  157.7231 N.ar    1  UNL1       -0.3187
     28 H         143.7165  138.1014  158.2415 H       1  UNL1        0.1690
     29 C         138.8831  142.6983  156.9292 C.ar    1  UNL1        0.0038
     30 C         137.5466  142.1762  156.4920 C.ar    1  UNL1        0.0207
     31 C         136.6362  143.0399  155.6702 C.ar    1  UNL1        0.0996
     32 N         137.0625  144.4257  155.2856 N.ar    1  UNL1       -0.2335
     33 C         138.3990  144.9478  155.7227 C.ar    1  UNL1        0.1492
     34 C         139.3094  144.0841  156.5445 C.ar    1  UNL1        0.0297
     35 C         138.8252  146.3335  155.3381 C.1     1  UNL1        0.1198
     36 N         139.2515  147.7194  154.9535 N.1     1  UNL1       -0.1893
@<TRIPOS>BOND
     1     1     2    1
     2     2     3   ar
     3     3     4   ar
     4     4     5   ar
     5     5    23    1
     6    23    24   ar
     7    24    25   ar
     8    25    26   ar
     9    26    27   ar
    10     5     6   ar
    11     6     7   ar
    12     7    29    1
    13    29    30   ar
    14    30    31   ar
    15    31    32   ar
    16    32    33   ar
    17    33    35    1
    18    35    36    3
    19    33    34   ar
    20     7     8   ar
    21     8     9   ar
    22     9    10   ar
    23    10    11    1
    24    11    12   ar
    25    12    13   ar
    26    13    14   ar
    27    14    15   ar
    28    15    16   ar
    29    16    17    1
    30    16    18   ar
    31    18    19   ar
    32    19    20   ar
    33    20    21    1
    34    20    22   ar
    35    10     2   ar
    36    22    11   ar
    37     9     4   ar
    38    22    15   ar
    39    27    23   ar
    40    34    29   ar
    41    27    28    1
@<TRIPOS>MOLECULE
*****
 36 41 0 0 0
SMALL
GASTEIGER

@<TRIPOS>ATOM
      1 C         139.8641  146.0922  162.4847 C.3     1  UNL1        0.0722
      2 C         140.4231  145.4349  161.2577 C.ar    1  UNL1        0.1246
      3 N         140.0191  145.7222  159.8420 N.ar    1  UNL1       -0.2305
      4 C         140.8305  144.8398  158.9403 C.ar    1  UNL1        0.1015
      5 C         140.8619  144.6868  157.4485 C.ar    1  UNL1        0.0548
      6 C         141.7987  143.7013  156.8151 C.ar    1  UNL1        0.0046
      7 C         142.7041  142.8687  157.6736 C.ar    1  UNL1        0.0018
      8 C         142.6727  143.0217  159.1654 C.ar    1  UNL1        0.0191
      9 C         141.7359  144.0072  159.7988 C.ar    1  UNL1        0.0827
     10 N         141.4841  144.3750  161.2310 N.ar    1  UNL1       -0.2935
     11 C         142.1726  143.7863  162.4267 C.ar    1  UNL1        0.0703
     12 C         143.4116  144.4322  162.9722 C.ar    1  UNL1        0.0383
     13 C         144.1000  143.8435  164.1678 C.ar    1  UNL1        0.1004
     14 N         143.5494  142.6089  164.8178 N.ar    1  UNL1       -0.2414
     15 C         142.3104  141.9630  164.2723 C.ar    1  UNL1        0.1122
     16 C         141.7598  140.7283  164.9223 C.ar    1  UNL1        0.1578
     17 F         142.4483  140.1396  166.1179 F       1  UNL1       -0.2026
     18 C         140.5208  140.0824  164.3768 C.ar    1  UNL1        0.0335
     19 C         139.8324  140.6711  163.1811 C.ar    1  UNL1        0.0321
     20 C         140.3830  141.9058  162.5311 C.ar    1  UNL1        0.1431
     21 F         139.5568  142.1835  161.5002 F       1  UNL1       -0.2041
     22 C         141.6220  142.5517  163.0767 C.ar    1  UNL1        0.0635
     23 C         139.9564  145.5194  156.5900 C.ar    1  UNL1        0.1647
     24 N         138.9601  144.9998  155.5964 N.ar    1  UNL1       -0.1288
     25 N         138.2763  146.1771  154.9667 N.ar    1  UNL1       -0.1258
     26 C         138.8500  147.4243  155.5712 C.ar    1  UNL1        0.1992
     27 N         139.8884  147.0178  156.5744 N.ar    1  UNL1       -0.3187
     28 H         140.4301  147.6275  157.1258 H       1  UNL1        0.1690
     29 C         143.6409  141.8832  157.0402 C.ar    1  UNL1        0.0038
     30 C         143.1771  140.4862  156.7518 C.ar    1  UNL1        0.0207
     31 C         144.1139  139.5007  156.1185 C.ar    1  UNL1        0.0996
     32 N         145.5145  139.9122  155.7735 N.ar    1  UNL1       -0.2335
     33 C         145.9782  141.3092  156.0618 C.ar    1  UNL1        0.1492
     34 C         145.0414  142.2948  156.6952 C.ar    1  UNL1        0.0297
     35 C         147.3788  141.7207  155.7168 C.1     1  UNL1        0.1198
     36 N         148.7794  142.1323  155.3717 N.1     1  UNL1       -0.1893
@<TRIPOS>BOND
     1     1     2    1
     2     2     3   ar
     3     3     4   ar
     4     4     5   ar
     5     5    23    1
     6    23    24   ar
     7    24    25   ar
     8    25    26   ar
     9    26    27   ar
    10     5     6   ar
    11     6     7   ar
    12     7    29    1
    13    29    30   ar
    14    30    31   ar
    15    31    32   ar
    16    32    33   ar
    17    33    35    1
    18    35    36    3
    19    33    34   ar
    20     7     8   ar
    21     8     9   ar
    22     9    10   ar
    23    10    11    1
    24    11    12   ar
    25    12    13   ar
    26    13    14   ar
    27    14    15   ar
    28    15    16   ar
    29    16    17    1
    30    16    18   ar
    31    18    19   ar
    32    19    20   ar
    33    20    21    1
    34    20    22   ar
    35    10     2   ar
    36    22    11   ar
    37     9     4   ar
    38    22    15   ar
    39    27    23   ar
    40    34    29   ar
    41    27    28    1
@<TRIPOS>MOLECULE
*****
 36 41 0 0 0
SMALL
GASTEIGER

@<TRIPOS>ATOM
      1 C         140.4602  145.8535  162.4696 C.3     1  UNL1        0.0722
      2 C         140.3979  145.0100  161.2308 C.ar    1  UNL1        0.1246
      3 N         140.0143  145.4835  159.8602 N.ar    1  UNL1       -0.2305
      4 C         140.0876  144.3111  158.9274 C.ar    1  UNL1        0.1015
      5 C         139.8192  144.1797  157.4575 C.ar    1  UNL1        0.0548
      6 C         139.9797  142.8501  156.7817 C.ar    1  UNL1        0.0046
      7 C         140.4085  141.6520  157.5758 C.ar    1  UNL1        0.0018
      8 C         140.6768  141.7835  159.0458 C.ar    1  UNL1        0.0191
      9 C         140.5164  143.1130  159.7215 C.ar    1  UNL1        0.0827
     10 N         140.7081  143.5449  161.1452 N.ar    1  UNL1       -0.2935
     11 C         141.1352  142.6661  162.2833 C.ar    1  UNL1        0.0703
     12 C         142.5901  142.5339  162.6237 C.ar    1  UNL1        0.0383
     13 C         143.0172  141.6551  163.7618 C.ar    1  UNL1        0.1004
     14 N         141.9895  140.9085  164.5594 N.ar    1  UNL1       -0.2414
     15 C         140.5346  141.0407  164.2190 C.ar    1  UNL1        0.1122
     16 C         139.5068  140.2940  165.0167 C.ar    1  UNL1        0.1578
     17 F         139.9339  139.4152  166.1547 F       1  UNL1       -0.2026
     18 C         138.0519  140.4262  164.6763 C.ar    1  UNL1        0.0335
     19 C         137.6249  141.3051  163.5381 C.ar    1  UNL1        0.0321
     20 C         138.6526  142.0517  162.7405 C.ar    1  UNL1        0.1431
     21 F         137.9675  142.7419  161.8041 F       1  UNL1       -0.2041
     22 C         140.1075  141.9195  163.0809 C.ar    1  UNL1        0.0635
     23 C         139.3904  145.3777  156.6633 C.ar    1  UNL1        0.1647
     24 N         138.4788  145.3658  155.4722 N.ar    1  UNL1       -0.1288
     25 N         138.3229  146.7788  154.9936 N.ar    1  UNL1       -0.1258
     26 C         139.1383  147.6641  155.8888 C.ar    1  UNL1        0.1992
     27 N         139.7980  146.7982  156.9208 N.ar    1  UNL1       -0.3187
     28 H         140.3939  147.1078  157.6407 H       1  UNL1        0.1690
     29 C         140.5689  140.3225  156.9001 C.ar    1  UNL1        0.0038
     30 C         139.3581  139.5518  156.4642 C.ar    1  UNL1        0.0207
     31 C         139.5186  138.2223  155.7885 C.ar    1  UNL1        0.0996
     32 N         140.8898  137.6635  155.5486 N.ar    1  UNL1       -0.2335
     33 C         142.1005  138.4342  155.9844 C.ar    1  UNL1        0.1492
     34 C         141.9401  139.7638  156.6602 C.ar    1  UNL1        0.0297
     35 C         143.4717  137.8755  155.7445 C.1     1  UNL1        0.1198
     36 N         144.8430  137.3167  155.5045 N.1     1  UNL1       -0.1893
@<TRIPOS>BOND
     1     1     2    1
     2     2     3   ar
     3     3     4   ar
     4     4     5   ar
     5     5    23    1
     6    23    24   ar
     7    24    25   ar
     8    25    26   ar
     9    26    27   ar
    10     5     6   ar
    11     6     7   ar
    12     7    29    1
    13    29    30   ar
    14    30    31   ar
    15    31    32   ar
    16    32    33   ar
    17    33    35    1
    18    35    36    3
    19    33    34   ar
    20     7     8   ar
    21     8     9   ar
    22     9    10   ar
    23    10    11    1
    24    11    12   ar
    25    12    13   ar
    26    13    14   ar
    27    14    15   ar
    28    15    16   ar
    29    16    17    1
    30    16    18   ar
    31    18    19   ar
    32    19    20   ar
    33    20    21    1
    34    20    22   ar
    35    10     2   ar
    36    22    11   ar
    37     9     4   ar
    38    22    15   ar
    39    27    23   ar
    40    34    29   ar
    41    27    28    1
@<TRIPOS>MOLECULE
*****
 36 41 0 0 0
SMALL
GASTEIGER

@<TRIPOS>ATOM
      1 C         138.7344  142.8398  162.3108 C.3     1  UNL1        0.0722
      2 C         139.1759  142.0512  161.1137 C.ar    1  UNL1        0.1246
      3 N         138.4765  141.9952  159.7879 N.ar    1  UNL1       -0.2305
      4 C         139.2626  141.0894  158.8870 C.ar    1  UNL1        0.1015
      5 C         139.0523  140.6584  157.4658 C.ar    1  UNL1        0.0548
      6 C         140.0272  139.7234  156.8135 C.ar    1  UNL1        0.0046
      7 C         141.2124  139.2196  157.5825 C.ar    1  UNL1        0.0018
      8 C         141.4227  139.6507  159.0038 C.ar    1  UNL1        0.0191
      9 C         140.4478  140.5856  159.6560 C.ar    1  UNL1        0.0827
     10 N         140.3942  141.1800  161.0322 N.ar    1  UNL1       -0.2935
     11 C         141.3851  140.9445  162.1335 C.ar    1  UNL1        0.0703
     12 C         142.4381  141.9715  162.4273 C.ar    1  UNL1        0.0383
     13 C         143.4289  141.7361  163.5285 C.ar    1  UNL1        0.1004
     14 N         143.3667  140.4735  164.3360 N.ar    1  UNL1       -0.2414
     15 C         142.3137  139.4465  164.0422 C.ar    1  UNL1        0.1122
     16 C         142.2516  138.1839  164.8498 C.ar    1  UNL1        0.1578
     17 F         143.2424  137.9484  165.9511 F       1  UNL1       -0.2026
     18 C         141.1986  137.1568  164.5561 C.ar    1  UNL1        0.0335
     19 C         140.2077  137.3923  163.4547 C.ar    1  UNL1        0.0321
     20 C         140.2699  138.6548  162.6472 C.ar    1  UNL1        0.1431
     21 F         139.2644  138.5726  161.7501 F       1  UNL1       -0.2041
     22 C         141.3229  139.6819  162.9410 C.ar    1  UNL1        0.0635
     23 C         137.8671  141.1622  156.6968 C.ar    1  UNL1        0.1647
     24 N         136.4984  140.5486  156.6844 N.ar    1  UNL1       -0.1288
     25 N         135.6279  141.3753  155.7851 N.ar    1  UNL1       -0.1258
     26 C         136.4586  142.4999  155.2416 C.ar    1  UNL1        0.1992
     27 N         137.8425  142.3682  155.8050 N.ar    1  UNL1       -0.3187
     28 H         138.6014  142.9679  155.6218 H       1  UNL1        0.1690
     29 C         142.1874  138.2846  156.9303 C.ar    1  UNL1        0.0038
     30 C         143.2416  138.8233  156.0092 C.ar    1  UNL1        0.0207
     31 C         144.2166  137.8883  155.3570 C.ar    1  UNL1        0.0996
     32 N         144.1372  136.4148  155.6258 N.ar    1  UNL1       -0.2335
     33 C         143.0830  135.8762  156.5468 C.ar    1  UNL1        0.1492
     34 C         142.1080  136.8111  157.1991 C.ar    1  UNL1        0.0297
     35 C         143.0036  134.4026  156.8157 C.1     1  UNL1        0.1198
     36 N         142.9243  132.9289  157.0846 N.1     1  UNL1       -0.1893
@<TRIPOS>BOND
     1     1     2    1
     2     2     3   ar
     3     3     4   ar
     4     4     5   ar
     5     5    23    1
     6    23    24   ar
     7    24    25   ar
     8    25    26   ar
     9    26    27   ar
    10     5     6   ar
    11     6     7   ar
    12     7    29    1
    13    29    30   ar
    14    30    31   ar
    15    31    32   ar
    16    32    33   ar
    17    33    35    1
    18    35    36    3
    19    33    34   ar
    20     7     8   ar
    21     8     9   ar
    22     9    10   ar
    23    10    11    1
    24    11    12   ar
    25    12    13   ar
    26    13    14   ar
    27    14    15   ar
    28    15    16   ar
    29    16    17    1
    30    16    18   ar
    31    18    19   ar
    32    19    20   ar
    33    20    21    1
    34    20    22   ar
    35    10     2   ar
    36    22    11   ar
    37     9     4   ar
    38    22    15   ar
    39    27    23   ar
    40    34    29   ar
    41    27    28    1
@<TRIPOS>MOLECULE
*****
 36 41 0 0 0
SMALL
GASTEIGER

@<TRIPOS>ATOM
      1 C         141.9155  144.7106  163.0461 C.3     1  UNL1        0.0722
      2 C         142.0651  144.0231  161.7214 C.ar    1  UNL1        0.1246
      3 N         141.4663  144.4733  160.4218 N.ar    1  UNL1       -0.2305
      4 C         141.8710  143.4931  159.3608 C.ar    1  UNL1        0.1015
      5 C         141.5761  143.4257  157.8917 C.ar    1  UNL1        0.0548
      6 C         142.1301  142.3023  157.0663 C.ar    1  UNL1        0.0046
      7 C         142.9790  141.2464  157.7101 C.ar    1  UNL1        0.0018
      8 C         143.2738  141.3139  159.1793 C.ar    1  UNL1        0.0191
      9 C         142.7198  142.4372  160.0047 C.ar    1  UNL1        0.0827
     10 N         142.8398  142.7648  161.4636 N.ar    1  UNL1       -0.2935
     11 C         143.6008  141.9729  162.4853 C.ar    1  UNL1        0.0703
     12 C         145.0363  142.3010  162.7714 C.ar    1  UNL1        0.0383
     13 C         145.7974  141.5092  163.7930 C.ar    1  UNL1        0.1004
     14 N         145.1230  140.3894  164.5286 N.ar    1  UNL1       -0.2414
     15 C         143.6875  140.0613  164.2425 C.ar    1  UNL1        0.1122
     16 C         143.0131  138.9414  164.9781 C.ar    1  UNL1        0.1578
     17 F         143.7742  138.1496  165.9998 F       1  UNL1       -0.2026
     18 C         141.5777  138.6133  164.6921 C.ar    1  UNL1        0.0335
     19 C         140.8166  139.4052  163.6703 C.ar    1  UNL1        0.0321
     20 C         141.4910  140.5250  162.9348 C.ar    1  UNL1        0.1431
     21 F         140.5611  141.0344  162.0991 F       1  UNL1       -0.2041
     22 C         142.9264  140.8531  163.2209 C.ar    1  UNL1        0.0635
     23 C         140.7273  144.4816  157.2478 C.ar    1  UNL1        0.1647
     24 N         139.7227  144.2608  156.1561 N.ar    1  UNL1       -0.1288
     25 N         139.1086  145.5865  155.8162 N.ar    1  UNL1       -0.1258
     26 C         139.7337  146.6266  156.6979 C.ar    1  UNL1        0.1992
     27 N         140.7341  145.9438  157.5827 N.ar    1  UNL1       -0.3187
     28 H         141.2964  146.3789  158.2636 H       1  UNL1        0.1690
     29 C         143.5329  140.1231  156.8848 C.ar    1  UNL1        0.0038
     30 C         144.6969  140.3673  155.9707 C.ar    1  UNL1        0.0207
     31 C         145.2509  139.2439  155.1453 C.ar    1  UNL1        0.0996
     32 N         144.6409  137.8764  155.2341 N.ar    1  UNL1       -0.2335
     33 C         143.4771  137.6323  156.1482 C.ar    1  UNL1        0.1492
     34 C         142.9230  138.7556  156.9736 C.ar    1  UNL1        0.0297
     35 C         142.8671  136.2648  156.2370 C.1     1  UNL1        0.1198
     36 N         142.2572  134.8972  156.3258 N.1     1  UNL1       -0.1893
@<TRIPOS>BOND
     1     1     2    1
     2     2     3   ar
     3     3     4   ar
     4     4     5   ar
     5     5    23    1
     6    23    24   ar
     7    24    25   ar
     8    25    26   ar
     9    26    27   ar
    10     5     6   ar
    11     6     7   ar
    12     7    29    1
    13    29    30   ar
    14    30    31   ar
    15    31    32   ar
    16    32    33   ar
    17    33    35    1
    18    35    36    3
    19    33    34   ar
    20     7     8   ar
    21     8     9   ar
    22     9    10   ar
    23    10    11    1
    24    11    12   ar
    25    12    13   ar
    26    13    14   ar
    27    14    15   ar
    28    15    16   ar
    29    16    17    1
    30    16    18   ar
    31    18    19   ar
    32    19    20   ar
    33    20    21    1
    34    20    22   ar
    35    10     2   ar
    36    22    11   ar
    37     9     4   ar
    38    22    15   ar
    39    27    23   ar
    40    34    29   ar
    41    27    28    1
