@<TRIPOS>MOLECULE
*****
 41 45 0 0 0
SMALL
GASTEIGER

@<TRIPOS>ATOM
      1 C         140.0525  145.7098  161.4428 C.3     1  UNL1        0.1700
      2 O         138.9286  146.6990  161.3513 O.3     1  UNL1       -0.3793
      3 H         138.4441  146.5621  160.5222 H       1  UNL1        0.2106
      4 C         140.2704  144.7179  160.3388 C.3     1  UNL1        0.2358
      5 O         139.2317  143.6741  160.0526 O.3     1  UNL1       -0.4727
      6 C         139.7539  141.3177  161.0141 C.ar    1  UNL1        0.0686
      7 C         139.4836  140.2342  162.0157 C.ar    1  UNL1        0.0059
      8 C         138.4209  140.4237  163.0571 C.ar    1  UNL1        0.0003
      9 C         137.6284  141.6967  163.0971 C.ar    1  UNL1        0.0031
     10 C         137.8987  142.7801  162.0956 C.ar    1  UNL1        0.0370
     11 C         138.9615  142.5906  161.0541 C.ar    1  UNL1        0.1413
     12 O         140.5198  140.3366  158.7336 O.2     1  UNL1       -0.2912
     13 C         140.8166  141.1282  159.9727 C.2     1  UNL1        0.1763
     14 C         142.1762  141.7304  160.1702 C.3     1  UNL1        0.0739
     15 C         143.3750  140.8420  160.3227 C.3     1  UNL1        0.0345
     16 C         143.9823  140.6278  161.6775 C.ar    1  UNL1       -0.0217
     17 C         145.0134  141.5852  162.1972 C.ar    1  UNL1       -0.0043
     18 C         145.6206  141.3710  163.5519 C.ar    1  UNL1       -0.0003
     19 C         145.1967  140.1993  164.3870 C.ar    1  UNL1       -0.0000
     20 C         144.1656  139.2418  163.8674 C.ar    1  UNL1       -0.0003
     21 C         143.5584  139.4560  162.5127 C.ar    1  UNL1       -0.0043
     22 C         140.9585  145.7124  162.6382 C.3     1  UNL1        0.1056
     23 N         140.9702  144.5395  163.5731 N.3     1  UNL1       -0.2682
     24 C         139.9566  144.4485  164.6749 C.3     1  UNL1        0.0897
     25 C         139.9683  143.2755  165.6098 C.3     1  UNL1        0.0901
     26 N         140.9936  142.1935  165.4428 N.3     1  UNL1       -0.2644
     27 C         142.0073  142.2845  164.3409 C.3     1  UNL1        0.0901
     28 C         141.9956  143.4575  163.4060 C.3     1  UNL1        0.0897
     29 C         141.0053  141.0205  166.3777 C.3     1  UNL1        0.1031
     30 C         140.2017  139.7959  166.0546 C.ar    1  UNL1       -0.0036
     31 C         140.7863  138.7233  165.1840 C.ar    1  UNL1       -0.0026
     32 C         139.9826  137.4987  164.8610 C.ar    1  UNL1       -0.0003
     33 C         138.5944  137.3466  165.4084 C.ar    1  UNL1       -0.0000
     34 C         138.0098  138.4192  166.2789 C.ar    1  UNL1       -0.0003
     35 C         138.8134  139.6439  166.6020 C.ar    1  UNL1       -0.0026
     36 C         141.8207  141.0722  167.6356 C.ar    1  UNL1       -0.0036
     37 C         141.7478  139.9457  168.6234 C.ar    1  UNL1       -0.0026
     38 C         142.5632  139.9973  169.8814 C.ar    1  UNL1       -0.0003
     39 C         143.4514  141.1755  170.1516 C.ar    1  UNL1       -0.0000
     40 C         143.5243  142.3019  169.1638 C.ar    1  UNL1       -0.0003
     41 C         142.7090  142.2503  167.9058 C.ar    1  UNL1       -0.0026
@<TRIPOS>BOND
     1    12    13    2
     2    13    14    1
     3    14    15    1
     4    15    16    1
     5    16    17   ar
     6    17    18   ar
     7    18    19   ar
     8    19    20   ar
     9    20    21   ar
    10    13     6    1
    11     6     7   ar
    12     7     8   ar
    13     8     9   ar
    14     9    10   ar
    15    10    11   ar
    16    11     5    1
    17     5     4    1
    18     4     1    1
    19     1     2    1
    20     1    22    1
    21    22    23    1
    22    23    24    1
    23    24    25    1
    24    25    26    1
    25    26    29    1
    26    29    30    1
    27    30    31   ar
    28    31    32   ar
    29    32    33   ar
    30    33    34   ar
    31    34    35   ar
    32    29    36    1
    33    36    37   ar
    34    37    38   ar
    35    38    39   ar
    36    39    40   ar
    37    40    41   ar
    38    26    27    1
    39    27    28    1
    40    21    16   ar
    41    11     6   ar
    42    28    23    1
    43    35    30   ar
    44    41    36   ar
    45     2     3    1
@<TRIPOS>MOLECULE
*****
 41 45 0 0 0
SMALL
GASTEIGER

@<TRIPOS>ATOM
      1 C         140.0646  145.7573  161.4383 C.3     1  UNL1        0.1700
      2 O         139.1879  146.8973  161.0118 O.3     1  UNL1       -0.3793
      3 H         138.7724  146.6851  160.1614 H       1  UNL1        0.2106
      4 C         140.1811  144.5368  160.5741 C.3     1  UNL1        0.2358
      5 O         138.9773  143.6777  160.3233 O.3     1  UNL1       -0.4727
      6 C         139.3501  141.2069  161.0348 C.ar    1  UNL1        0.0686
      7 C         139.0446  140.0583  161.9499 C.ar    1  UNL1        0.0059
      8 C         138.0608  140.2320  163.0688 C.ar    1  UNL1        0.0003
      9 C         137.3824  141.5543  163.2725 C.ar    1  UNL1        0.0031
     10 C         137.6879  142.7029  162.3574 C.ar    1  UNL1        0.0370
     11 C         138.6718  142.5291  161.2385 C.ar    1  UNL1        0.1413
     12 O         139.8462  140.7605  158.5239 O.2     1  UNL1       -0.2912
     13 C         140.3339  141.0332  159.9159 C.2     1  UNL1        0.1763
     14 C         141.8056  141.1322  160.1891 C.3     1  UNL1        0.0739
     15 C         142.5118  140.0200  160.9061 C.3     1  UNL1        0.0345
     16 C         143.5329  140.3355  161.9587 C.ar    1  UNL1       -0.0217
     17 C         144.3691  141.5755  161.8447 C.ar    1  UNL1       -0.0043
     18 C         145.3902  141.8909  162.8973 C.ar    1  UNL1       -0.0003
     19 C         145.5750  140.9662  164.0638 C.ar    1  UNL1       -0.0000
     20 C         144.7388  139.7262  164.1778 C.ar    1  UNL1       -0.0003
     21 C         143.7178  139.4108  163.1252 C.ar    1  UNL1       -0.0043
     22 C         140.8247  145.8377  162.7289 C.3     1  UNL1        0.1056
     23 N         140.8078  144.6802  163.6827 N.3     1  UNL1       -0.2682
     24 C         141.9442  143.7012  163.6942 C.3     1  UNL1        0.0897
     25 C         141.9273  142.5436  164.6480 C.3     1  UNL1        0.0901
     26 N         140.7741  142.3651  165.5903 N.3     1  UNL1       -0.2644
     27 C         139.6377  143.3441  165.5789 C.3     1  UNL1        0.0901
     28 C         139.6546  144.5016  164.6251 C.3     1  UNL1        0.0897
     29 C         140.7572  141.2075  166.5442 C.3     1  UNL1        0.1031
     30 C         141.4086  141.3345  167.8893 C.ar    1  UNL1       -0.0036
     31 C         142.1749  140.1799  168.4636 C.ar    1  UNL1       -0.0026
     32 C         142.8263  140.3069  169.8087 C.ar    1  UNL1       -0.0003
     33 C         142.7115  141.5885  170.5797 C.ar    1  UNL1       -0.0000
     34 C         141.9452  142.7430  170.0055 C.ar    1  UNL1       -0.0003
     35 C         141.2937  142.6161  168.6603 C.ar    1  UNL1       -0.0026
     36 C         140.0889  139.9229  166.1528 C.ar    1  UNL1       -0.0036
     37 C         138.7453  139.5731  166.7207 C.ar    1  UNL1       -0.0026
     38 C         138.0770  138.2884  166.3293 C.ar    1  UNL1       -0.0003
     39 C         138.7523  137.3537  165.3701 C.ar    1  UNL1       -0.0000
     40 C         140.0959  137.7035  164.8022 C.ar    1  UNL1       -0.0003
     41 C         140.7642  138.9880  165.1935 C.ar    1  UNL1       -0.0026
@<TRIPOS>BOND
     1    12    13    2
     2    13    14    1
     3    14    15    1
     4    15    16    1
     5    16    17   ar
     6    17    18   ar
     7    18    19   ar
     8    19    20   ar
     9    20    21   ar
    10    13     6    1
    11     6     7   ar
    12     7     8   ar
    13     8     9   ar
    14     9    10   ar
    15    10    11   ar
    16    11     5    1
    17     5     4    1
    18     4     1    1
    19     1     2    1
    20     1    22    1
    21    22    23    1
    22    23    24    1
    23    24    25    1
    24    25    26    1
    25    26    29    1
    26    29    30    1
    27    30    31   ar
    28    31    32   ar
    29    32    33   ar
    30    33    34   ar
    31    34    35   ar
    32    29    36    1
    33    36    37   ar
    34    37    38   ar
    35    38    39   ar
    36    39    40   ar
    37    40    41   ar
    38    26    27    1
    39    27    28    1
    40    21    16   ar
    41    11     6   ar
    42    28    23    1
    43    35    30   ar
    44    41    36   ar
    45     2     3    1
@<TRIPOS>MOLECULE
*****
 41 45 0 0 0
SMALL
GASTEIGER

@<TRIPOS>ATOM
      1 C         139.9850  145.9897  161.3690 C.3     1  UNL1        0.1700
      2 O         138.9092  146.8924  160.8419 O.3     1  UNL1       -0.3793
      3 H         138.7495  146.6930  159.9061 H       1  UNL1        0.2106
      4 C         140.6256  144.9788  160.4647 C.3     1  UNL1        0.2358
      5 O         142.0390  144.5409  160.7114 O.3     1  UNL1       -0.4727
      6 C         143.8628  142.7268  160.3472 C.ar    1  UNL1        0.0686
      7 C         144.4730  141.6501  159.4997 C.ar    1  UNL1        0.0059
      8 C         143.8698  141.3107  158.1690 C.ar    1  UNL1        0.0003
      9 C         142.6562  142.0481  157.6856 C.ar    1  UNL1        0.0031
     10 C         142.0459  143.1249  158.5331 C.ar    1  UNL1        0.0370
     11 C         142.6492  143.4642  159.8639 C.ar    1  UNL1        0.1413
     12 O         144.5092  144.4925  162.1400 O.2     1  UNL1       -0.2912
     13 C         144.4660  143.0661  161.6779 C.2     1  UNL1        0.1763
     14 C         145.0261  141.9791  162.5466 C.3     1  UNL1        0.0739
     15 C         144.1012  141.0466  163.2711 C.3     1  UNL1        0.0345
     16 C         143.2052  140.1265  162.4960 C.ar    1  UNL1       -0.0217
     17 C         143.7323  138.8162  161.9908 C.ar    1  UNL1       -0.0043
     18 C         142.8364  137.8961  161.2156 C.ar    1  UNL1       -0.0003
     19 C         141.4135  138.2864  160.9457 C.ar    1  UNL1       -0.0000
     20 C         140.8864  139.5967  161.4509 C.ar    1  UNL1       -0.0003
     21 C         141.7823  140.5167  162.2260 C.ar    1  UNL1       -0.0043
     22 C         140.4203  146.0980  162.8004 C.3     1  UNL1        0.1056
     23 N         140.4215  144.8816  163.6780 N.3     1  UNL1       -0.2682
     24 C         141.7204  144.3002  164.1522 C.3     1  UNL1        0.0897
     25 C         141.7216  143.0838  165.0298 C.3     1  UNL1        0.0901
     26 N         140.4240  142.4487  165.4333 N.3     1  UNL1       -0.2644
     27 C         139.1251  143.0300  164.9590 C.3     1  UNL1        0.0901
     28 C         139.1239  144.2465  164.0814 C.3     1  UNL1        0.0897
     29 C         140.4252  141.2322  166.3109 C.3     1  UNL1        0.1031
     30 C         140.1888  141.3711  167.7856 C.ar    1  UNL1       -0.0036
     31 C         140.5523  142.6465  168.4866 C.ar    1  UNL1       -0.0026
     32 C         140.3158  142.7853  169.9613 C.ar    1  UNL1       -0.0003
     33 C         139.7159  141.6489  170.7350 C.ar    1  UNL1       -0.0000
     34 C         139.3524  140.3736  170.0340 C.ar    1  UNL1       -0.0003
     35 C         139.5888  140.2347  168.5593 C.ar    1  UNL1       -0.0026
     36 C         140.6629  139.8769  165.7138 C.ar    1  UNL1       -0.0036
     37 C         139.5516  139.1666  164.9994 C.ar    1  UNL1       -0.0026
     38 C         139.7894  137.8112  164.4023 C.ar    1  UNL1       -0.0003
     39 C         141.1384  137.1661  164.5197 C.ar    1  UNL1       -0.0000
     40 C         142.2498  137.8764  165.2342 C.ar    1  UNL1       -0.0003
     41 C         142.0121  139.2317  165.8312 C.ar    1  UNL1       -0.0026
@<TRIPOS>BOND
     1    12    13    2
     2    13    14    1
     3    14    15    1
     4    15    16    1
     5    16    17   ar
     6    17    18   ar
     7    18    19   ar
     8    19    20   ar
     9    20    21   ar
    10    13     6    1
    11     6     7   ar
    12     7     8   ar
    13     8     9   ar
    14     9    10   ar
    15    10    11   ar
    16    11     5    1
    17     5     4    1
    18     4     1    1
    19     1     2    1
    20     1    22    1
    21    22    23    1
    22    23    24    1
    23    24    25    1
    24    25    26    1
    25    26    29    1
    26    29    30    1
    27    30    31   ar
    28    31    32   ar
    29    32    33   ar
    30    33    34   ar
    31    34    35   ar
    32    29    36    1
    33    36    37   ar
    34    37    38   ar
    35    38    39   ar
    36    39    40   ar
    37    40    41   ar
    38    26    27    1
    39    27    28    1
    40    21    16   ar
    41    11     6   ar
    42    28    23    1
    43    35    30   ar
    44    41    36   ar
    45     2     3    1
@<TRIPOS>MOLECULE
*****
 41 45 0 0 0
SMALL
GASTEIGER

@<TRIPOS>ATOM
      1 C         143.8329  140.6192  158.4053 C.3     1  UNL1        0.1700
      2 O         144.9477  140.1246  157.5320 O.3     1  UNL1       -0.3793
      3 H         145.5902  140.8378  157.3928 H       1  UNL1        0.2106
      4 C         143.8468  142.0311  158.9116 C.3     1  UNL1        0.2358
      5 O         144.2355  142.3146  160.3324 O.3     1  UNL1       -0.4727
      6 C         143.5670  143.2045  162.6800 C.ar    1  UNL1        0.0686
      7 C         142.6839  144.0555  163.5436 C.ar    1  UNL1        0.0059
      8 C         141.5860  144.8677  162.9231 C.ar    1  UNL1        0.0003
      9 C         141.3713  144.8289  161.4390 C.ar    1  UNL1        0.0031
     10 C         142.2544  143.9779  160.5755 C.ar    1  UNL1        0.0370
     11 C         143.3523  143.1656  161.1960 C.ar    1  UNL1        0.1413
     12 O         145.8378  141.9595  162.4716 O.2     1  UNL1       -0.2912
     13 C         144.6649  142.3923  163.3004 C.2     1  UNL1        0.1763
     14 C         144.5898  142.0128  164.7497 C.3     1  UNL1        0.0739
     15 C         143.7247  140.8658  165.1809 C.3     1  UNL1        0.0345
     16 C         142.8783  140.9866  166.4134 C.ar    1  UNL1       -0.0217
     17 C         142.9757  142.2120  167.2729 C.ar    1  UNL1       -0.0043
     18 C         142.1293  142.3328  168.5054 C.ar    1  UNL1       -0.0003
     19 C         141.1855  141.2282  168.8783 C.ar    1  UNL1       -0.0000
     20 C         141.0880  140.0028  168.0187 C.ar    1  UNL1       -0.0003
     21 C         141.9345  139.8820  166.7863 C.ar    1  UNL1       -0.0043
     22 C         142.7042  139.7020  158.7722 C.3     1  UNL1        0.1056
     23 N         141.9127  139.9495  160.0222 N.3     1  UNL1       -0.2682
     24 C         140.5390  140.5455  159.9344 C.3     1  UNL1        0.0897
     25 C         139.7476  140.7930  161.1844 C.3     1  UNL1        0.0901
     26 N         140.3298  140.4445  162.5221 N.3     1  UNL1       -0.2644
     27 C         141.7035  139.8485  162.6098 C.3     1  UNL1        0.0901
     28 C         142.4950  139.6010  161.3599 C.3     1  UNL1        0.0897
     29 C         139.5384  140.6919  163.7720 C.3     1  UNL1        0.1031
     30 C         139.2240  142.0963  164.1949 C.ar    1  UNL1       -0.0036
     31 C         139.8954  142.6847  165.4004 C.ar    1  UNL1       -0.0026
     32 C         139.5810  144.0890  165.8234 C.ar    1  UNL1       -0.0003
     33 C         138.5952  144.9051  165.0408 C.ar    1  UNL1       -0.0000
     34 C         137.9239  144.3168  163.8354 C.ar    1  UNL1       -0.0003
     35 C         138.2382  142.9123  163.4124 C.ar    1  UNL1       -0.0026
     36 C         139.0613  139.5351  164.5990 C.ar    1  UNL1       -0.0036
     37 C         138.2366  139.7810  165.8276 C.ar    1  UNL1       -0.0026
     38 C         137.7596  138.6240  166.6547 C.ar    1  UNL1       -0.0003
     39 C         138.1072  137.2212  166.2531 C.ar    1  UNL1       -0.0000
     40 C         138.9318  136.9753  165.0245 C.ar    1  UNL1       -0.0003
     41 C         139.4089  138.1322  164.1975 C.ar    1  UNL1       -0.0026
@<TRIPOS>BOND
     1    12    13    2
     2    13    14    1
     3    14    15    1
     4    15    16    1
     5    16    17   ar
     6    17    18   ar
     7    18    19   ar
     8    19    20   ar
     9    20    21   ar
    10    13     6    1
    11     6     7   ar
    12     7     8   ar
    13     8     9   ar
    14     9    10   ar
    15    10    11   ar
    16    11     5    1
    17     5     4    1
    18     4     1    1
    19     1     2    1
    20     1    22    1
    21    22    23    1
    22    23    24    1
    23    24    25    1
    24    25    26    1
    25    26    29    1
    26    29    30    1
    27    30    31   ar
    28    31    32   ar
    29    32    33   ar
    30    33    34   ar
    31    34    35   ar
    32    29    36    1
    33    36    37   ar
    34    37    38   ar
    35    38    39   ar
    36    39    40   ar
    37    40    41   ar
    38    26    27    1
    39    27    28    1
    40    21    16   ar
    41    11     6   ar
    42    28    23    1
    43    35    30   ar
    44    41    36   ar
    45     2     3    1
@<TRIPOS>MOLECULE
*****
 41 45 0 0 0
SMALL
GASTEIGER

@<TRIPOS>ATOM
      1 C         140.2958  144.9418  160.4911 C.3     1  UNL1        0.1700
      2 O         139.5153  146.2226  160.5140 O.3     1  UNL1       -0.3793
      3 H         138.8155  146.1869  159.8432 H       1  UNL1        0.2106
      4 C         139.9311  143.8585  159.5197 C.3     1  UNL1        0.2358
      5 O         140.4972  142.4795  159.6869 O.3     1  UNL1       -0.4727
      6 C         140.2552  140.0371  160.5390 C.ar    1  UNL1        0.0686
      7 C         139.4711  138.9881  161.2702 C.ar    1  UNL1        0.0059
      8 C         138.1448  139.3323  161.8804 C.ar    1  UNL1        0.0003
      9 C         137.6026  140.7257  161.7595 C.ar    1  UNL1        0.0031
     10 C         138.3867  141.7748  161.0283 C.ar    1  UNL1        0.0370
     11 C         139.7131  141.4305  160.4181 C.ar    1  UNL1        0.1413
     12 O         141.6527  139.2191  158.5073 O.2     1  UNL1       -0.2912
     13 C         141.5815  139.6929  159.9288 C.2     1  UNL1        0.1763
     14 C         142.8366  139.8224  160.7400 C.3     1  UNL1        0.0739
     15 C         143.3415  138.6531  161.5322 C.3     1  UNL1        0.0345
     16 C         143.1919  138.6376  163.0247 C.ar    1  UNL1       -0.0217
     17 C         142.0012  137.9755  163.6523 C.ar    1  UNL1       -0.0043
     18 C         141.8516  137.9601  165.1447 C.ar    1  UNL1       -0.0003
     19 C         142.8927  138.6067  166.0095 C.ar    1  UNL1       -0.0000
     20 C         144.0834  139.2687  165.3820 C.ar    1  UNL1       -0.0003
     21 C         144.2330  139.2842  163.8896 C.ar    1  UNL1       -0.0043
     22 C         141.4410  144.7443  161.4395 C.3     1  UNL1        0.1056
     23 N         141.2263  144.0164  162.7333 N.3     1  UNL1       -0.2682
     24 C         142.1029  142.8539  163.0942 C.3     1  UNL1        0.0897
     25 C         141.8883  142.1259  164.3880 C.3     1  UNL1        0.0901
     26 N         140.7970  142.5604  165.3209 N.3     1  UNL1       -0.2644
     27 C         139.9205  143.7228  164.9600 C.3     1  UNL1        0.0901
     28 C         140.1351  144.4508  163.6662 C.3     1  UNL1        0.0897
     29 C         140.5824  141.8324  166.6147 C.3     1  UNL1        0.1031
     30 C         139.6159  140.6871  166.6795 C.ar    1  UNL1       -0.0036
     31 C         139.0723  140.0919  165.4144 C.ar    1  UNL1       -0.0026
     32 C         138.1059  138.9467  165.4792 C.ar    1  UNL1       -0.0003
     33 C         137.6830  138.3964  166.8090 C.ar    1  UNL1       -0.0000
     34 C         138.2265  138.9915  168.0740 C.ar    1  UNL1       -0.0003
     35 C         139.1930  140.1369  168.0093 C.ar    1  UNL1       -0.0026
     36 C         141.3342  142.2496  167.8438 C.ar    1  UNL1       -0.0036
     37 C         142.7448  141.7850  168.0540 C.ar    1  UNL1       -0.0026
     38 C         143.4967  142.2023  169.2831 C.ar    1  UNL1       -0.0003
     39 C         142.8378  143.0843  170.3019 C.ar    1  UNL1       -0.0000
     40 C         141.4272  143.5489  170.0917 C.ar    1  UNL1       -0.0003
     41 C         140.6754  143.1317  168.8627 C.ar    1  UNL1       -0.0026
@<TRIPOS>BOND
     1    12    13    2
     2    13    14    1
     3    14    15    1
     4    15    16    1
     5    16    17   ar
     6    17    18   ar
     7    18    19   ar
     8    19    20   ar
     9    20    21   ar
    10    13     6    1
    11     6     7   ar
    12     7     8   ar
    13     8     9   ar
    14     9    10   ar
    15    10    11   ar
    16    11     5    1
    17     5     4    1
    18     4     1    1
    19     1     2    1
    20     1    22    1
    21    22    23    1
    22    23    24    1
    23    24    25    1
    24    25    26    1
    25    26    29    1
    26    29    30    1
    27    30    31   ar
    28    31    32   ar
    29    32    33   ar
    30    33    34   ar
    31    34    35   ar
    32    29    36    1
    33    36    37   ar
    34    37    38   ar
    35    38    39   ar
    36    39    40   ar
    37    40    41   ar
    38    26    27    1
    39    27    28    1
    40    21    16   ar
    41    11     6   ar
    42    28    23    1
    43    35    30   ar
    44    41    36   ar
    45     2     3    1
@<TRIPOS>MOLECULE
*****
 41 45 0 0 0
SMALL
GASTEIGER

@<TRIPOS>ATOM
      1 C         140.1796  145.9341  161.3963 C.3     1  UNL1        0.1700
      2 O         138.9164  146.6883  161.1038 O.3     1  UNL1       -0.3793
      3 H         138.6569  146.5389  160.1811 H       1  UNL1        0.2106
      4 C         140.8294  145.1139  160.3216 C.3     1  UNL1        0.2358
      5 O         142.0917  144.3584  160.6147 O.3     1  UNL1       -0.4727
      6 C         143.5937  142.3540  159.9244 C.ar    1  UNL1        0.0686
      7 C         144.2312  141.5157  158.8563 C.ar    1  UNL1        0.0059
      8 C         144.0040  141.8433  157.4103 C.ar    1  UNL1        0.0003
      9 C         143.1393  143.0094  157.0323 C.ar    1  UNL1        0.0031
     10 C         142.5019  143.8477  158.1005 C.ar    1  UNL1        0.0370
     11 C         142.7291  143.5200  159.5465 C.ar    1  UNL1        0.1413
     12 O         145.0780  142.4775  162.0531 O.2     1  UNL1       -0.2912
     13 C         143.8209  142.0263  161.3704 C.2     1  UNL1        0.1763
     14 C         142.7910  141.2475  162.1338 C.3     1  UNL1        0.0739
     15 C         142.2220  139.9868  161.5535 C.3     1  UNL1        0.0345
     16 C         140.7601  139.6853  161.7031 C.ar    1  UNL1       -0.0217
     17 C         140.2165  138.3635  161.2480 C.ar    1  UNL1       -0.0043
     18 C         138.7548  138.0621  161.3976 C.ar    1  UNL1       -0.0003
     19 C         137.8367  139.0826  162.0023 C.ar    1  UNL1       -0.0000
     20 C         138.3803  140.4044  162.4574 C.ar    1  UNL1       -0.0003
     21 C         139.8420  140.7058  162.3078 C.ar    1  UNL1       -0.0043
     22 C         140.7929  146.0001  162.7636 C.3     1  UNL1        0.1056
     23 N         140.6659  144.8349  163.6996 N.3     1  UNL1       -0.2682
     24 C         139.3083  144.3549  164.1197 C.3     1  UNL1        0.0897
     25 C         139.1812  143.1897  165.0558 C.3     1  UNL1        0.0901
     26 N         140.4117  142.5045  165.5717 N.3     1  UNL1       -0.2644
     27 C         141.7693  142.9845  165.1516 C.3     1  UNL1        0.0901
     28 C         141.8964  144.1497  164.2156 C.3     1  UNL1        0.0897
     29 C         140.2846  141.3393  166.5078 C.3     1  UNL1        0.1031
     30 C         140.3376  141.5592  167.9906 C.ar    1  UNL1       -0.0036
     31 C         140.2646  140.3885  168.9256 C.ar    1  UNL1       -0.0026
     32 C         140.3175  140.6084  170.4084 C.ar    1  UNL1       -0.0003
     33 C         140.4434  141.9991  170.9563 C.ar    1  UNL1       -0.0000
     34 C         140.5164  143.1698  170.0214 C.ar    1  UNL1       -0.0003
     35 C         140.4635  142.9499  168.5385 C.ar    1  UNL1       -0.0026
     36 C         140.1046  139.9542  165.9610 C.ar    1  UNL1       -0.0036
     37 C         141.2798  139.2117  165.3974 C.ar    1  UNL1       -0.0026
     38 C         141.0998  137.8265  164.8507 C.ar    1  UNL1       -0.0003
     39 C         139.7446  137.1839  164.8675 C.ar    1  UNL1       -0.0000
     40 C         138.5694  137.9263  165.4311 C.ar    1  UNL1       -0.0003
     41 C         138.7494  139.3115  165.9779 C.ar    1  UNL1       -0.0026
@<TRIPOS>BOND
     1    12    13    2
     2    13    14    1
     3    14    15    1
     4    15    16    1
     5    16    17   ar
     6    17    18   ar
     7    18    19   ar
     8    19    20   ar
     9    20    21   ar
    10    13     6    1
    11     6     7   ar
    12     7     8   ar
    13     8     9   ar
    14     9    10   ar
    15    10    11   ar
    16    11     5    1
    17     5     4    1
    18     4     1    1
    19     1     2    1
    20     1    22    1
    21    22    23    1
    22    23    24    1
    23    24    25    1
    24    25    26    1
    25    26    29    1
    26    29    30    1
    27    30    31   ar
    28    31    32   ar
    29    32    33   ar
    30    33    34   ar
    31    34    35   ar
    32    29    36    1
    33    36    37   ar
    34    37    38   ar
    35    38    39   ar
    36    39    40   ar
    37    40    41   ar
    38    26    27    1
    39    27    28    1
    40    21    16   ar
    41    11     6   ar
    42    28    23    1
    43    35    30   ar
    44    41    36   ar
    45     2     3    1
@<TRIPOS>MOLECULE
*****
 41 45 0 0 0
SMALL
GASTEIGER

@<TRIPOS>ATOM
      1 C         143.2731  137.5464  160.2193 C.3     1  UNL1        0.1700
      2 O         142.9751  136.1304  159.8239 O.3     1  UNL1       -0.3793
      3 H         142.4242  136.1268  159.0255 H       1  UNL1        0.2106
      4 C         142.7308  138.6827  159.4040 C.3     1  UNL1        0.2358
      5 O         141.3053  139.1166  159.5770 O.3     1  UNL1       -0.4727
      6 C         139.5753  140.9846  160.0943 C.ar    1  UNL1        0.0686
      7 C         139.2664  142.3749  160.5650 C.ar    1  UNL1        0.0059
      8 C         140.3787  143.2876  160.9890 C.ar    1  UNL1        0.0003
      9 C         141.7999  142.8100  160.9424 C.ar    1  UNL1        0.0031
     10 C         142.1088  141.4197  160.4717 C.ar    1  UNL1        0.0370
     11 C         140.9964  140.5069  160.0477 C.ar    1  UNL1        0.1413
     12 O         138.1565  139.8898  158.2133 O.2     1  UNL1       -0.2912
     13 C         138.4631  140.0719  159.6703 C.2     1  UNL1        0.1763
     14 C         137.6574  139.3412  160.7033 C.3     1  UNL1        0.0739
     15 C         138.3183  138.3307  161.5931 C.3     1  UNL1        0.0345
     16 C         138.3871  138.5656  163.0731 C.ar    1  UNL1       -0.0217
     17 C         138.7593  137.4419  163.9943 C.ar    1  UNL1       -0.0043
     18 C         138.8281  137.6769  165.4742 C.ar    1  UNL1       -0.0003
     19 C         138.5247  139.0355  166.0328 C.ar    1  UNL1       -0.0000
     20 C         138.1526  140.1592  165.1115 C.ar    1  UNL1       -0.0003
     21 C         138.0838  139.9242  163.6317 C.ar    1  UNL1       -0.0043
     22 C         144.1133  137.8259  161.4300 C.3     1  UNL1        0.1056
     23 N         143.6170  138.7686  162.4860 N.3     1  UNL1       -0.2682
     24 C         144.4745  139.9165  162.9297 C.3     1  UNL1        0.0897
     25 C         143.9782  140.8591  163.9857 C.3     1  UNL1        0.0901
     26 N         142.6244  140.6539  164.5979 N.3     1  UNL1       -0.2644
     27 C         141.7668  139.5060  164.1542 C.3     1  UNL1        0.0901
     28 C         142.2631  138.5634  163.0983 C.3     1  UNL1        0.0897
     29 C         142.1281  141.5966  165.6539 C.3     1  UNL1        0.1031
     30 C         142.4810  141.3637  167.0930 C.ar    1  UNL1       -0.0036
     31 C         142.2034  140.0331  167.7275 C.ar    1  UNL1       -0.0026
     32 C         142.5564  139.8002  169.1667 C.ar    1  UNL1       -0.0003
     33 C         143.1869  140.8979  169.9714 C.ar    1  UNL1       -0.0000
     34 C         143.4644  142.2284  169.3370 C.ar    1  UNL1       -0.0003
     35 C         143.1115  142.4614  167.8978 C.ar    1  UNL1       -0.0026
     36 C         141.2789  142.7721  165.2708 C.ar    1  UNL1       -0.0036
     37 C         139.8650  142.8680  165.7625 C.ar    1  UNL1       -0.0026
     38 C         139.0158  144.0437  165.3793 C.ar    1  UNL1       -0.0003
     39 C         139.5804  145.1233  164.5044 C.ar    1  UNL1       -0.0000
     40 C         140.9942  145.0274  164.0126 C.ar    1  UNL1       -0.0003
     41 C         141.8435  143.8518  164.3957 C.ar    1  UNL1       -0.0026
@<TRIPOS>BOND
     1    12    13    2
     2    13    14    1
     3    14    15    1
     4    15    16    1
     5    16    17   ar
     6    17    18   ar
     7    18    19   ar
     8    19    20   ar
     9    20    21   ar
    10    13     6    1
    11     6     7   ar
    12     7     8   ar
    13     8     9   ar
    14     9    10   ar
    15    10    11   ar
    16    11     5    1
    17     5     4    1
    18     4     1    1
    19     1     2    1
    20     1    22    1
    21    22    23    1
    22    23    24    1
    23    24    25    1
    24    25    26    1
    25    26    29    1
    26    29    30    1
    27    30    31   ar
    28    31    32   ar
    29    32    33   ar
    30    33    34   ar
    31    34    35   ar
    32    29    36    1
    33    36    37   ar
    34    37    38   ar
    35    38    39   ar
    36    39    40   ar
    37    40    41   ar
    38    26    27    1
    39    27    28    1
    40    21    16   ar
    41    11     6   ar
    42    28    23    1
    43    35    30   ar
    44    41    36   ar
    45     2     3    1
@<TRIPOS>MOLECULE
*****
 41 45 0 0 0
SMALL
GASTEIGER

@<TRIPOS>ATOM
      1 C         143.3465  137.6256  160.2543 C.3     1  UNL1        0.1700
      2 O         142.9660  136.2171  159.9054 O.3     1  UNL1       -0.3793
      3 H         142.4353  136.2173  159.0935 H       1  UNL1        0.2106
      4 C         142.8993  138.7611  159.3822 C.3     1  UNL1        0.2358
      5 O         141.4659  139.2030  159.4026 O.3     1  UNL1       -0.4727
      6 C         139.6789  141.0175  159.9162 C.ar    1  UNL1        0.0686
      7 C         139.3286  142.4068  160.3603 C.ar    1  UNL1        0.0059
      8 C         140.4150  143.3708  160.7349 C.ar    1  UNL1        0.0003
      9 C         141.8518  142.9455  160.6654 C.ar    1  UNL1        0.0031
     10 C         142.2021  141.5563  160.2213 C.ar    1  UNL1        0.0370
     11 C         141.1156  140.5922  159.8467 C.ar    1  UNL1        0.1413
     12 O         138.3773  139.6880  158.1028 O.2     1  UNL1       -0.2912
     13 C         138.5925  140.0535  159.5416 C.2     1  UNL1        0.1763
     14 C         137.7211  139.4549  160.6058 C.3     1  UNL1        0.0739
     15 C         138.2752  138.4108  161.5293 C.3     1  UNL1        0.0345
     16 C         138.3558  138.6795  163.0029 C.ar    1  UNL1       -0.0217
     17 C         138.7481  137.5805  163.9453 C.ar    1  UNL1       -0.0043
     18 C         138.8287  137.8492  165.4188 C.ar    1  UNL1       -0.0003
     19 C         138.5171  139.2170  165.9499 C.ar    1  UNL1       -0.0000
     20 C         138.1248  140.3160  165.0075 C.ar    1  UNL1       -0.0003
     21 C         138.0442  140.0473  163.5340 C.ar    1  UNL1       -0.0043
     22 C         144.1741  137.8983  161.4751 C.3     1  UNL1        0.1056
     23 N         143.6583  138.8199  162.5404 N.3     1  UNL1       -0.2682
     24 C         144.5997  139.7474  163.2499 C.3     1  UNL1        0.0897
     25 C         144.0839  140.6690  164.3151 C.3     1  UNL1        0.0901
     26 N         142.6267  140.6630  164.6708 N.3     1  UNL1       -0.2644
     27 C         141.6853  139.7355  163.9613 C.3     1  UNL1        0.0901
     28 C         142.2011  138.8139  162.8961 C.3     1  UNL1        0.0897
     29 C         142.1109  141.5845  165.7360 C.3     1  UNL1        0.1031
     30 C         141.2458  142.7518  165.3634 C.ar    1  UNL1       -0.0036
     31 C         141.6967  143.7110  164.3019 C.ar    1  UNL1       -0.0026
     32 C         140.8316  144.8783  163.9292 C.ar    1  UNL1       -0.0003
     33 C         139.5154  145.0865  164.6180 C.ar    1  UNL1       -0.0000
     34 C         139.0645  144.1274  165.6795 C.ar    1  UNL1       -0.0003
     35 C         139.9296  142.9600  166.0522 C.ar    1  UNL1       -0.0026
     36 C         142.4603  141.3388  167.1739 C.ar    1  UNL1       -0.0036
     37 C         143.1352  142.4119  167.9757 C.ar    1  UNL1       -0.0026
     38 C         143.4846  142.1661  169.4137 C.ar    1  UNL1       -0.0003
     39 C         143.1590  140.8473  170.0497 C.ar    1  UNL1       -0.0000
     40 C         142.4841  139.7742  169.2479 C.ar    1  UNL1       -0.0003
     41 C         142.1347  140.0199  167.8100 C.ar    1  UNL1       -0.0026
@<TRIPOS>BOND
     1    12    13    2
     2    13    14    1
     3    14    15    1
     4    15    16    1
     5    16    17   ar
     6    17    18   ar
     7    18    19   ar
     8    19    20   ar
     9    20    21   ar
    10    13     6    1
    11     6     7   ar
    12     7     8   ar
    13     8     9   ar
    14     9    10   ar
    15    10    11   ar
    16    11     5    1
    17     5     4    1
    18     4     1    1
    19     1     2    1
    20     1    22    1
    21    22    23    1
    22    23    24    1
    23    24    25    1
    24    25    26    1
    25    26    29    1
    26    29    30    1
    27    30    31   ar
    28    31    32   ar
    29    32    33   ar
    30    33    34   ar
    31    34    35   ar
    32    29    36    1
    33    36    37   ar
    34    37    38   ar
    35    38    39   ar
    36    39    40   ar
    37    40    41   ar
    38    26    27    1
    39    27    28    1
    40    21    16   ar
    41    11     6   ar
    42    28    23    1
    43    35    30   ar
    44    41    36   ar
    45     2     3    1
@<TRIPOS>MOLECULE
*****
 41 45 0 0 0
SMALL
GASTEIGER

@<TRIPOS>ATOM
      1 C         144.0686  142.0283  160.4889 C.3     1  UNL1        0.1700
      2 O         144.0774  143.2937  159.6833 O.3     1  UNL1       -0.3793
      3 H         143.6235  143.1429  158.8394 H       1  UNL1        0.2106
      4 C         143.4166  140.7941  159.9396 C.3     1  UNL1        0.2358
      5 O         141.9346  140.6055  160.0744 O.3     1  UNL1       -0.4727
      6 C         139.9284  139.2214  160.9741 C.ar    1  UNL1        0.0686
      7 C         139.3874  138.1585  161.8838 C.ar    1  UNL1        0.0059
      8 C         140.3115  137.4168  162.8035 C.ar    1  UNL1        0.0003
      9 C         141.7767  137.7380  162.8135 C.ar    1  UNL1        0.0031
     10 C         142.3178  138.8008  161.9038 C.ar    1  UNL1        0.0370
     11 C         141.3936  139.5426  160.9841 C.ar    1  UNL1        0.1413
     12 O         138.6893  139.4055  158.6981 O.2     1  UNL1       -0.2912
     13 C         139.0043  139.9631  160.0545 C.2     1  UNL1        0.1763
     14 C         138.3952  141.2625  160.4912 C.3     1  UNL1        0.0739
     15 C         137.7810  141.3823  161.8544 C.3     1  UNL1        0.0345
     16 C         138.1526  142.5297  162.7463 C.ar    1  UNL1       -0.0217
     17 C         138.9263  143.6896  162.1932 C.ar    1  UNL1       -0.0043
     18 C         139.2978  144.8369  163.0852 C.ar    1  UNL1       -0.0003
     19 C         138.8957  144.8243  164.5302 C.ar    1  UNL1       -0.0000
     20 C         138.1220  143.6644  165.0833 C.ar    1  UNL1       -0.0003
     21 C         137.7504  142.5171  164.1913 C.ar    1  UNL1       -0.0043
     22 C         144.7117  141.9972  161.8436 C.3     1  UNL1        0.1056
     23 N         143.8674  141.8196  163.0707 N.3     1  UNL1       -0.2682
     24 C         144.3021  140.8724  164.1495 C.3     1  UNL1        0.0897
     25 C         143.4579  140.6948  165.3766 C.3     1  UNL1        0.0901
     26 N         142.1789  141.4643  165.5249 N.3     1  UNL1       -0.2644
     27 C         141.7442  142.4115  164.4461 C.3     1  UNL1        0.0901
     28 C         142.5885  142.5891  163.2190 C.3     1  UNL1        0.0897
     29 C         141.3347  141.2866  166.7519 C.3     1  UNL1        0.1031
     30 C         141.6909  142.0075  168.0182 C.ar    1  UNL1       -0.0036
     31 C         140.7225  142.9783  168.6264 C.ar    1  UNL1       -0.0026
     32 C         141.0787  143.6991  169.8927 C.ar    1  UNL1       -0.0003
     33 C         142.4033  143.4493  170.5507 C.ar    1  UNL1       -0.0000
     34 C         143.3716  142.4786  169.9426 C.ar    1  UNL1       -0.0003
     35 C         143.0155  141.7577  168.6763 C.ar    1  UNL1       -0.0026
     36 C         140.1343  140.3881  166.7127 C.ar    1  UNL1       -0.0036
     37 C         139.6406  139.8528  165.4014 C.ar    1  UNL1       -0.0026
     38 C         138.4401  138.9542  165.3622 C.ar    1  UNL1       -0.0003
     39 C         137.7333  138.5910  166.6344 C.ar    1  UNL1       -0.0000
     40 C         138.2270  139.1264  167.9458 C.ar    1  UNL1       -0.0003
     41 C         139.4275  140.0249  167.9850 C.ar    1  UNL1       -0.0026
@<TRIPOS>BOND
     1    12    13    2
     2    13    14    1
     3    14    15    1
     4    15    16    1
     5    16    17   ar
     6    17    18   ar
     7    18    19   ar
     8    19    20   ar
     9    20    21   ar
    10    13     6    1
    11     6     7   ar
    12     7     8   ar
    13     8     9   ar
    14     9    10   ar
    15    10    11   ar
    16    11     5    1
    17     5     4    1
    18     4     1    1
    19     1     2    1
    20     1    22    1
    21    22    23    1
    22    23    24    1
    23    24    25    1
    24    25    26    1
    25    26    29    1
    26    29    30    1
    27    30    31   ar
    28    31    32   ar
    29    32    33   ar
    30    33    34   ar
    31    34    35   ar
    32    29    36    1
    33    36    37   ar
    34    37    38   ar
    35    38    39   ar
    36    39    40   ar
    37    40    41   ar
    38    26    27    1
    39    27    28    1
    40    21    16   ar
    41    11     6   ar
    42    28    23    1
    43    35    30   ar
    44    41    36   ar
    45     2     3    1
