@<TRIPOS>MOLECULE
*****
 33 37 0 0 0
SMALL
GASTEIGER

@<TRIPOS>ATOM
      1 C         140.6717  140.4192  167.0004 C.3     1  UNL1        0.2308
      2 N         139.4014  139.9675  167.6577 N.2     1  UNL1       -0.0614
      3 C         139.4573  140.3718  169.1011 C.2     1  UNL1        0.3157
      4 N         138.3948  140.1190  170.1294 N.pl3   1  UNL1       -0.2464
      5 C         140.7622  141.0734  169.3358 C.ar    1  UNL1        0.1094
      6 C         141.3638  141.6893  170.5641 C.ar    1  UNL1        0.1470
      7 F         140.6132  141.6601  171.8624 F       1  UNL1       -0.2039
      8 C         142.7161  142.3346  170.4939 C.ar    1  UNL1        0.0299
      9 C         143.4667  142.3638  169.1955 C.ar    1  UNL1        0.0021
     10 C         142.8650  141.7479  167.9673 C.ar    1  UNL1        0.0008
     11 C         141.5128  141.1027  168.0375 C.ar    1  UNL1        0.0390
     12 H         137.5681  139.6475  169.8773 H       1  UNL1        0.2884
     13 H         138.5242  140.4245  171.0563 H       1  UNL1        0.2884
     14 C         144.1055  141.3879  164.2579 C.ar    1  UNL1        0.1387
     15 C         143.0767  142.4340  164.5699 C.ar    1  UNL1        0.0367
     16 C         141.9321  142.1111  165.4841 C.ar    1  UNL1        0.0035
     17 C         141.8163  140.7421  166.0862 C.ar    1  UNL1        0.0299
     18 C         142.8451  139.6960  165.7741 C.ar    1  UNL1        0.0035
     19 C         143.9897  140.0189  164.8600 C.ar    1  UNL1        0.0367
     20 C         144.9891  142.0489  161.9058 C.3     1  UNL1        0.2525
     21 O         145.2500  141.7108  163.3438 O.3     1  UNL1       -0.4714
     22 C         140.0700  139.8032  165.7721 C.ar    1  UNL1        0.0297
     23 C         139.7162  138.3456  165.7605 C.ar    1  UNL1        0.0004
     24 C         139.1145  137.7296  164.5324 C.ar    1  UNL1       -0.0002
     25 C         138.8665  138.5712  163.3158 C.ar    1  UNL1        0.0001
     26 C         139.2203  140.0289  163.3274 C.ar    1  UNL1        0.0028
     27 C         139.8220  140.6449  164.5556 C.ar    1  UNL1        0.0005
     28 C         138.9723  140.8705  162.1107 C.ar    1  UNL1        0.0384
     29 C         139.6207  140.5127  160.8064 C.ar    1  UNL1        0.1022
     30 N         139.3727  141.3544  159.5897 N.ar    1  UNL1       -0.2224
     31 C         138.4763  142.5538  159.6775 C.ar    1  UNL1        0.1989
     32 N         137.8278  142.9116  160.9820 N.ar    1  UNL1       -0.2224
     33 C         138.0758  142.0699  162.1985 C.ar    1  UNL1        0.1022
@<TRIPOS>BOND
     1    20    21    1
     2    21    14    1
     3    14    15   ar
     4    15    16   ar
     5    16    17   ar
     6    17     1    1
     7     1    22    1
     8    22    23   ar
     9    23    24   ar
    10    24    25   ar
    11    25    26   ar
    12    26    28    1
    13    28    29   ar
    14    29    30   ar
    15    30    31   ar
    16    31    32   ar
    17    32    33   ar
    18    26    27   ar
    19     1     2    1
    20     2     3    2
    21     3     4    1
    22     3     5    1
    23     5     6   ar
    24     6     7    1
    25     6     8   ar
    26     8     9   ar
    27     9    10   ar
    28    10    11   ar
    29    17    18   ar
    30    18    19   ar
    31    19    14   ar
    32    11     1    1
    33    27    22   ar
    34    11     5   ar
    35    33    28   ar
    36     4    12    1
    37     4    13    1
@<TRIPOS>MOLECULE
*****
 33 37 0 0 0
SMALL
GASTEIGER

@<TRIPOS>ATOM
      1 C         142.1140  141.9513  166.8416 C.3     1  UNL1        0.2308
      2 N         143.3361  142.5471  167.4751 N.2     1  UNL1       -0.0614
      3 C         143.2387  142.3379  168.9573 C.2     1  UNL1        0.3157
      4 N         144.2466  142.7767  169.9778 N.pl3   1  UNL1       -0.2464
      5 C         141.9563  141.6127  169.2397 C.ar    1  UNL1        0.1094
      6 C         141.3318  141.1391  170.5186 C.ar    1  UNL1        0.1470
      7 F         142.0269  141.3780  171.8262 F       1  UNL1       -0.2039
      8 C         140.0122  140.4266  170.4900 C.ar    1  UNL1        0.0299
      9 C         139.3171  140.1877  169.1824 C.ar    1  UNL1        0.0021
     10 C         139.9416  140.6613  167.9035 C.ar    1  UNL1        0.0008
     11 C         141.2612  141.3738  167.9322 C.ar    1  UNL1        0.0390
     12 H         145.0621  143.2489  169.6928 H       1  UNL1        0.2884
     13 H         144.0927  142.5925  170.9326 H       1  UNL1        0.2884
     14 C         138.8393  140.4608  164.1388 C.ar    1  UNL1        0.1387
     15 C         138.6885  141.7754  164.8453 C.ar    1  UNL1        0.0367
     16 C         139.7800  142.2722  165.7463 C.ar    1  UNL1        0.0035
     17 C         141.0224  141.4545  165.9407 C.ar    1  UNL1        0.0299
     18 C         141.1732  140.1399  165.2341 C.ar    1  UNL1        0.0035
     19 C         140.0817  139.6431  164.3332 C.ar    1  UNL1        0.0367
     20 C         138.0635  138.9841  162.1470 C.3     1  UNL1        0.2525
     21 O         137.7477  139.9640  163.2379 O.3     1  UNL1       -0.4714
     22 C         142.7386  142.4249  165.5627 C.ar    1  UNL1        0.0297
     23 C         144.1825  142.1331  165.2802 C.ar    1  UNL1        0.0004
     24 C         144.8071  142.6067  164.0013 C.ar    1  UNL1       -0.0002
     25 C         143.9878  143.3721  163.0049 C.ar    1  UNL1        0.0001
     26 C         142.5438  143.6639  163.2875 C.ar    1  UNL1        0.0028
     27 C         141.9192  143.1903  164.5663 C.ar    1  UNL1        0.0005
     28 C         141.7244  144.4294  162.2910 C.ar    1  UNL1        0.0384
     29 C         142.1425  144.4723  160.8511 C.ar    1  UNL1        0.1022
     30 N         141.3231  145.2377  159.8547 N.ar    1  UNL1       -0.2224
     31 C         140.0857  145.9602  160.2982 C.ar    1  UNL1        0.1989
     32 N         139.6676  145.9173  161.7382 N.ar    1  UNL1       -0.2224
     33 C         140.4870  145.1519  162.7346 C.ar    1  UNL1        0.1022
@<TRIPOS>BOND
     1    20    21    1
     2    21    14    1
     3    14    15   ar
     4    15    16   ar
     5    16    17   ar
     6    17     1    1
     7     1    22    1
     8    22    23   ar
     9    23    24   ar
    10    24    25   ar
    11    25    26   ar
    12    26    28    1
    13    28    29   ar
    14    29    30   ar
    15    30    31   ar
    16    31    32   ar
    17    32    33   ar
    18    26    27   ar
    19     1     2    1
    20     2     3    2
    21     3     4    1
    22     3     5    1
    23     5     6   ar
    24     6     7    1
    25     6     8   ar
    26     8     9   ar
    27     9    10   ar
    28    10    11   ar
    29    17    18   ar
    30    18    19   ar
    31    19    14   ar
    32    11     1    1
    33    27    22   ar
    34    11     5   ar
    35    33    28   ar
    36     4    12    1
    37     4    13    1
@<TRIPOS>MOLECULE
*****
 33 37 0 0 0
SMALL
GASTEIGER

@<TRIPOS>ATOM
      1 C         139.7776  139.8192  165.7783 C.3     1  UNL1        0.2308
      2 N         138.7076  138.7712  165.8601 N.2     1  UNL1       -0.0614
      3 C         138.1509  138.7850  167.2529 C.2     1  UNL1        0.3157
      4 N         137.0598  137.8980  167.7751 N.pl3   1  UNL1       -0.2464
      5 C         138.8769  139.8414  168.0319 C.ar    1  UNL1        0.1094
      6 C         138.7524  140.3039  169.4534 C.ar    1  UNL1        0.1470
      7 F         137.7470  139.6647  170.3647 F       1  UNL1       -0.2039
      8 C         139.6333  141.4057  169.9634 C.ar    1  UNL1        0.0299
      9 C         140.6387  142.0448  169.0520 C.ar    1  UNL1        0.0021
     10 C         140.7632  141.5823  167.6306 C.ar    1  UNL1        0.0008
     11 C         139.8823  140.4806  167.1205 C.ar    1  UNL1        0.0390
     12 H         136.6422  137.2309  167.1836 H       1  UNL1        0.2884
     13 H         136.7612  137.9829  168.7094 H       1  UNL1        0.2884
     14 C         143.0660  142.6730  164.6413 C.ar    1  UNL1        0.1387
     15 C         141.6341  143.1155  164.5791 C.ar    1  UNL1        0.0367
     16 C         140.5379  142.1642  164.9581 C.ar    1  UNL1        0.0035
     17 C         140.8737  140.7704  165.3993 C.ar    1  UNL1        0.0299
     18 C         142.3057  140.3279  165.4615 C.ar    1  UNL1        0.0035
     19 C         143.4018  141.2792  165.0825 C.ar    1  UNL1        0.0367
     20 C         144.1139  144.3368  162.9432 C.3     1  UNL1        0.2525
     21 O         144.1621  143.6242  164.2623 O.3     1  UNL1       -0.4714
     22 C         139.9021  139.3566  164.3568 C.ar    1  UNL1        0.0297
     23 C         140.4947  138.0121  164.0548 C.ar    1  UNL1        0.0004
     24 C         140.6192  137.5495  162.6334 C.ar    1  UNL1       -0.0002
     25 C         140.1511  138.4314  161.5140 C.ar    1  UNL1        0.0001
     26 C         139.5584  139.7758  161.8160 C.ar    1  UNL1        0.0028
     27 C         139.4339  140.2384  163.2374 C.ar    1  UNL1        0.0005
     28 C         139.0903  140.6577  160.6965 C.ar    1  UNL1        0.0384
     29 C         138.6658  140.0517  159.3917 C.ar    1  UNL1        0.1022
     30 N         138.1977  140.9336  158.2722 N.ar    1  UNL1       -0.2224
     31 C         138.1539  142.4215  158.4576 C.ar    1  UNL1        0.1989
     32 N         138.5784  143.0274  159.7625 N.ar    1  UNL1       -0.2224
     33 C         139.0465  142.1456  160.8819 C.ar    1  UNL1        0.1022
@<TRIPOS>BOND
     1    20    21    1
     2    21    14    1
     3    14    15   ar
     4    15    16   ar
     5    16    17   ar
     6    17     1    1
     7     1    22    1
     8    22    23   ar
     9    23    24   ar
    10    24    25   ar
    11    25    26   ar
    12    26    28    1
    13    28    29   ar
    14    29    30   ar
    15    30    31   ar
    16    31    32   ar
    17    32    33   ar
    18    26    27   ar
    19     1     2    1
    20     2     3    2
    21     3     4    1
    22     3     5    1
    23     5     6   ar
    24     6     7    1
    25     6     8   ar
    26     8     9   ar
    27     9    10   ar
    28    10    11   ar
    29    17    18   ar
    30    18    19   ar
    31    19    14   ar
    32    11     1    1
    33    27    22   ar
    34    11     5   ar
    35    33    28   ar
    36     4    12    1
    37     4    13    1
@<TRIPOS>MOLECULE
*****
 33 37 0 0 0
SMALL
GASTEIGER

@<TRIPOS>ATOM
      1 C         141.9314  141.1364  166.4948 C.3     1  UNL1        0.2308
      2 N         143.0170  141.9720  167.1057 N.2     1  UNL1       -0.0614
      3 C         142.7134  142.1308  168.5660 C.2     1  UNL1        0.3157
      4 N         143.5382  142.8932  169.5602 N.pl3   1  UNL1       -0.2464
      5 C         141.4401  141.3933  168.8576 C.ar    1  UNL1        0.1094
      6 C         140.6584  141.2021  170.1234 C.ar    1  UNL1        0.1470
      7 F         141.1416  141.8167  171.4035 F       1  UNL1       -0.2039
      8 C         139.3933  140.3962  170.1091 C.ar    1  UNL1        0.0299
      9 C         138.9100  139.7817  168.8289 C.ar    1  UNL1        0.0021
     10 C         139.6918  139.9729  167.5632 C.ar    1  UNL1        0.0008
     11 C         140.9568  140.7787  167.5775 C.ar    1  UNL1        0.0390
     12 H         144.3628  143.3466  169.2711 H       1  UNL1        0.2884
     13 H         143.2549  142.9401  170.5019 H       1  UNL1        0.2884
     14 C         139.1650  138.7495  163.8681 C.ar    1  UNL1        0.1387
     15 C         138.8816  140.1981  164.1350 C.ar    1  UNL1        0.0367
     16 C         139.8038  140.9937  165.0106 C.ar    1  UNL1        0.0035
     17 C         141.0093  140.3408  165.6192 C.ar    1  UNL1        0.0299
     18 C         141.2926  138.8921  165.3522 C.ar    1  UNL1        0.0035
     19 C         140.3705  138.0965  164.4766 C.ar    1  UNL1        0.0367
     20 C         137.7781  138.5194  161.6832 C.3     1  UNL1        0.2525
     21 O         138.2428  137.9539  162.9925 O.3     1  UNL1       -0.4714
     22 C         142.7133  141.3276  165.2290 C.ar    1  UNL1        0.0297
     23 C         144.0192  140.6146  165.0391 C.ar    1  UNL1        0.0004
     24 C         144.8010  140.8058  163.7733 C.ar    1  UNL1       -0.0002
     25 C         144.2769  141.7101  162.6975 C.ar    1  UNL1        0.0001
     26 C         142.9710  142.4232  162.8874 C.ar    1  UNL1        0.0028
     27 C         142.1892  142.2320  164.1531 C.ar    1  UNL1        0.0005
     28 C         142.4469  143.3276  161.8115 C.ar    1  UNL1        0.0384
     29 C         141.3513  144.3044  162.1206 C.ar    1  UNL1        0.1022
     30 N         140.8272  145.2088  161.0446 N.ar    1  UNL1       -0.2224
     31 C         141.3988  145.1363  159.6597 C.ar    1  UNL1        0.1989
     32 N         142.4944  144.1594  159.3506 N.ar    1  UNL1       -0.2224
     33 C         143.0184  143.2551  160.4265 C.ar    1  UNL1        0.1022
@<TRIPOS>BOND
     1    20    21    1
     2    21    14    1
     3    14    15   ar
     4    15    16   ar
     5    16    17   ar
     6    17     1    1
     7     1    22    1
     8    22    23   ar
     9    23    24   ar
    10    24    25   ar
    11    25    26   ar
    12    26    28    1
    13    28    29   ar
    14    29    30   ar
    15    30    31   ar
    16    31    32   ar
    17    32    33   ar
    18    26    27   ar
    19     1     2    1
    20     2     3    2
    21     3     4    1
    22     3     5    1
    23     5     6   ar
    24     6     7    1
    25     6     8   ar
    26     8     9   ar
    27     9    10   ar
    28    10    11   ar
    29    17    18   ar
    30    18    19   ar
    31    19    14   ar
    32    11     1    1
    33    27    22   ar
    34    11     5   ar
    35    33    28   ar
    36     4    12    1
    37     4    13    1
@<TRIPOS>MOLECULE
*****
 33 37 0 0 0
SMALL
GASTEIGER

@<TRIPOS>ATOM
      1 C         142.1964  140.7007  166.7023 C.3     1  UNL1        0.2308
      2 N         142.7786  139.4551  167.3017 N.2     1  UNL1       -0.0614
      3 C         142.5172  139.4855  168.7785 C.2     1  UNL1        0.3157
      4 N         142.9275  138.4357  169.7683 N.pl3   1  UNL1       -0.2464
      5 C         141.7733  140.7498  169.0917 C.ar    1  UNL1        0.1094
      6 C         141.2509  141.3142  170.3795 C.ar    1  UNL1        0.1470
      7 F         141.4492  140.5631  171.6627 F       1  UNL1       -0.2039
      8 C         140.5303  142.6297  170.3841 C.ar    1  UNL1        0.0299
      9 C         140.3320  143.3808  169.1009 C.ar    1  UNL1        0.0021
     10 C         140.8544  142.8164  167.8131 C.ar    1  UNL1        0.0008
     11 C         141.5751  141.5009  167.8085 C.ar    1  UNL1        0.0390
     12 H         143.4153  137.6364  169.4643 H       1  UNL1        0.2884
     13 H         142.7090  138.5461  170.7219 H       1  UNL1        0.2884
     14 C         140.7773  144.0837  164.0961 C.ar    1  UNL1        0.1387
     15 C         139.8045  143.0475  164.5758 C.ar    1  UNL1        0.0367
     16 C         140.2776  141.9198  165.4445 C.ar    1  UNL1        0.0035
     17 C         141.7234  141.8283  165.8336 C.ar    1  UNL1        0.0299
     18 C         142.6961  142.8646  165.3538 C.ar    1  UNL1        0.0035
     19 C         142.2231  143.9922  164.4851 C.ar    1  UNL1        0.0367
     20 C         138.9903  145.1063  162.5115 C.3     1  UNL1        0.2525
     21 O         140.3043  145.2113  163.2274 O.3     1  UNL1       -0.4714
     22 C         142.7188  140.1363  165.4144 C.ar    1  UNL1        0.0297
     23 C         144.1837  139.8534  165.2591 C.ar    1  UNL1        0.0004
     24 C         144.7062  139.2889  163.9714 C.ar    1  UNL1       -0.0002
     25 C         143.7637  139.0074  162.8389 C.ar    1  UNL1        0.0001
     26 C         142.2989  139.2903  162.9942 C.ar    1  UNL1        0.0028
     27 C         141.7764  139.8547  164.2820 C.ar    1  UNL1        0.0005
     28 C         141.3564  139.0087  161.8616 C.ar    1  UNL1        0.0384
     29 C         141.7079  139.4399  160.4686 C.ar    1  UNL1        0.1022
     30 N         140.7655  139.1583  159.3361 N.ar    1  UNL1       -0.2224
     31 C         139.4716  138.4455  159.5966 C.ar    1  UNL1        0.1989
     32 N         139.1202  138.0143  160.9897 N.ar    1  UNL1       -0.2224
     33 C         140.0626  138.2959  162.1222 C.ar    1  UNL1        0.1022
@<TRIPOS>BOND
     1    20    21    1
     2    21    14    1
     3    14    15   ar
     4    15    16   ar
     5    16    17   ar
     6    17     1    1
     7     1    22    1
     8    22    23   ar
     9    23    24   ar
    10    24    25   ar
    11    25    26   ar
    12    26    28    1
    13    28    29   ar
    14    29    30   ar
    15    30    31   ar
    16    31    32   ar
    17    32    33   ar
    18    26    27   ar
    19     1     2    1
    20     2     3    2
    21     3     4    1
    22     3     5    1
    23     5     6   ar
    24     6     7    1
    25     6     8   ar
    26     8     9   ar
    27     9    10   ar
    28    10    11   ar
    29    17    18   ar
    30    18    19   ar
    31    19    14   ar
    32    11     1    1
    33    27    22   ar
    34    11     5   ar
    35    33    28   ar
    36     4    12    1
    37     4    13    1
@<TRIPOS>MOLECULE
*****
 33 37 0 0 0
SMALL
GASTEIGER

@<TRIPOS>ATOM
      1 C         139.2738  140.6146  165.6671 C.3     1  UNL1        0.2308
      2 N         138.3198  139.4647  165.7999 N.2     1  UNL1       -0.0614
      3 C         138.1623  139.1593  167.2600 C.2     1  UNL1        0.3157
      4 N         137.2996  138.0819  167.8474 N.pl3   1  UNL1       -0.2464
      5 C         139.0189  140.1205  168.0296 C.ar    1  UNL1        0.1094
      6 C         139.2622  140.2929  169.4997 C.ar    1  UNL1        0.1470
      7 F         138.5752  139.3935  170.4841 F       1  UNL1       -0.2039
      8 C         140.1923  141.3648  169.9853 C.ar    1  UNL1        0.0299
      9 C         140.8793  142.2642  169.0008 C.ar    1  UNL1        0.0021
     10 C         140.6360  142.0918  167.5308 C.ar    1  UNL1        0.0008
     11 C         139.7059  141.0199  167.0452 C.ar    1  UNL1        0.0390
     12 H         136.7709  137.4980  167.2569 H       1  UNL1        0.2884
     13 H         137.2621  137.9587  168.8234 H       1  UNL1        0.2884
     14 C         141.9831  143.9562  164.3468 C.ar    1  UNL1        0.1387
     15 C         142.5462  142.5887  164.5972 C.ar    1  UNL1        0.0367
     16 C         141.6430  141.4747  165.0373 C.ar    1  UNL1        0.0035
     17 C         140.1769  141.7284  165.2270 C.ar    1  UNL1        0.0299
     18 C         139.6138  143.0961  164.9767 C.ar    1  UNL1        0.0035
     19 C         140.5169  144.2100  164.5366 C.ar    1  UNL1        0.0367
     20 C         143.9741  144.8038  162.9089 C.3     1  UNL1        0.2525
     21 O         142.8862  145.0701  163.9068 O.3     1  UNL1       -0.4714
     22 C         139.0305  140.4421  164.1970 C.ar    1  UNL1        0.0297
     23 C         137.7574  140.9449  163.5835 C.ar    1  UNL1        0.0004
     24 C         137.5141  140.7725  162.1135 C.ar    1  UNL1       -0.0002
     25 C         138.5438  140.0972  161.2570 C.ar    1  UNL1        0.0001
     26 C         139.8169  139.5944  161.8705 C.ar    1  UNL1        0.0028
     27 C         140.0602  139.7668  163.3406 C.ar    1  UNL1        0.0005
     28 C         140.8467  138.9191  161.0140 C.ar    1  UNL1        0.0384
     29 C         140.6933  138.9117  159.5219 C.ar    1  UNL1        0.1022
     30 N         141.7231  138.2364  158.6654 N.ar    1  UNL1       -0.2224
     31 C         142.9062  137.5685  159.3010 C.ar    1  UNL1        0.1989
     32 N         143.0596  137.5759  160.7932 N.ar    1  UNL1       -0.2224
     33 C         142.0299  138.2512  161.6496 C.ar    1  UNL1        0.1022
@<TRIPOS>BOND
     1    20    21    1
     2    21    14    1
     3    14    15   ar
     4    15    16   ar
     5    16    17   ar
     6    17     1    1
     7     1    22    1
     8    22    23   ar
     9    23    24   ar
    10    24    25   ar
    11    25    26   ar
    12    26    28    1
    13    28    29   ar
    14    29    30   ar
    15    30    31   ar
    16    31    32   ar
    17    32    33   ar
    18    26    27   ar
    19     1     2    1
    20     2     3    2
    21     3     4    1
    22     3     5    1
    23     5     6   ar
    24     6     7    1
    25     6     8   ar
    26     8     9   ar
    27     9    10   ar
    28    10    11   ar
    29    17    18   ar
    30    18    19   ar
    31    19    14   ar
    32    11     1    1
    33    27    22   ar
    34    11     5   ar
    35    33    28   ar
    36     4    12    1
    37     4    13    1
@<TRIPOS>MOLECULE
*****
 33 37 0 0 0
SMALL
GASTEIGER

@<TRIPOS>ATOM
      1 C         141.6648  140.2771  166.5796 C.3     1  UNL1        0.2308
      2 N         142.3508  139.0838  167.1757 N.2     1  UNL1       -0.0614
      3 C         142.4890  139.3177  168.6509 C.2     1  UNL1        0.3157
      4 N         143.1175  138.3786  169.6374 N.pl3   1  UNL1       -0.2464
      5 C         141.8884  140.6555  168.9665 C.ar    1  UNL1        0.1094
      6 C         141.7396  141.4103  170.2541 C.ar    1  UNL1        0.1470
      7 F         142.2490  140.8173  171.5343 F       1  UNL1       -0.2039
      8 C         141.0813  142.7581  170.2616 C.ar    1  UNL1        0.0299
      9 C         140.5719  143.3511  168.9814 C.ar    1  UNL1        0.0021
     10 C         140.7207  142.5962  167.6937 C.ar    1  UNL1        0.0008
     11 C         141.3790  141.2485  167.6863 C.ar    1  UNL1        0.0390
     12 H         143.4862  137.5183  169.3321 H       1  UNL1        0.2884
     13 H         143.1613  138.6226  170.5902 H       1  UNL1        0.2884
     14 C         139.7000  143.3836  163.9834 C.ar    1  UNL1        0.1387
     15 C         138.9126  142.2007  164.4639 C.ar    1  UNL1        0.0367
     16 C         139.5675  141.1652  165.3293 C.ar    1  UNL1        0.0035
     17 C         141.0098  141.3126  165.7142 C.ar    1  UNL1        0.0299
     18 C         141.7972  142.4955  165.2337 C.ar    1  UNL1        0.0035
     19 C         141.1423  143.5310  164.3683 C.ar    1  UNL1        0.0367
     20 C         137.5502  144.4629  163.0019 C.3     1  UNL1        0.2525
     21 O         139.0451  144.4190  163.1181 O.3     1  UNL1       -0.4714
     22 C         141.8136  139.5222  165.2919 C.ar    1  UNL1        0.0297
     23 C         141.3778  138.0894  165.2078 C.ar    1  UNL1        0.0004
     24 C         141.5266  137.3345  163.9203 C.ar    1  UNL1       -0.0002
     25 C         142.1113  138.0124  162.7167 C.ar    1  UNL1        0.0001
     26 C         142.5471  139.4452  162.8008 C.ar    1  UNL1        0.0028
     27 C         142.3983  140.2001  164.0884 C.ar    1  UNL1        0.0005
     28 C         143.1318  140.1231  161.5971 C.ar    1  UNL1        0.0384
     29 C         143.4745  139.3208  160.3770 C.ar    1  UNL1        0.1022
     30 N         144.0592  139.9987  159.1734 N.ar    1  UNL1       -0.2224
     31 C         144.3011  141.4790  159.1900 C.ar    1  UNL1        0.1989
     32 N         143.9584  142.2813  160.4102 N.ar    1  UNL1       -0.2224
     33 C         143.3737  141.6034  161.6137 C.ar    1  UNL1        0.1022
@<TRIPOS>BOND
     1    20    21    1
     2    21    14    1
     3    14    15   ar
     4    15    16   ar
     5    16    17   ar
     6    17     1    1
     7     1    22    1
     8    22    23   ar
     9    23    24   ar
    10    24    25   ar
    11    25    26   ar
    12    26    28    1
    13    28    29   ar
    14    29    30   ar
    15    30    31   ar
    16    31    32   ar
    17    32    33   ar
    18    26    27   ar
    19     1     2    1
    20     2     3    2
    21     3     4    1
    22     3     5    1
    23     5     6   ar
    24     6     7    1
    25     6     8   ar
    26     8     9   ar
    27     9    10   ar
    28    10    11   ar
    29    17    18   ar
    30    18    19   ar
    31    19    14   ar
    32    11     1    1
    33    27    22   ar
    34    11     5   ar
    35    33    28   ar
    36     4    12    1
    37     4    13    1
@<TRIPOS>MOLECULE
*****
 33 37 0 0 0
SMALL
GASTEIGER

@<TRIPOS>ATOM
      1 C         142.6955  140.1247  165.3592 C.3     1  UNL1        0.2308
      2 N         143.6693  138.9842  165.3884 N.2     1  UNL1       -0.0614
      3 C         143.6789  138.4184  166.7776 C.2     1  UNL1        0.3157
      4 N         144.5104  137.2644  167.2539 N.pl3   1  UNL1       -0.2464
      5 C         142.7111  139.2093  167.6070 C.ar    1  UNL1        0.1094
      6 C         142.3047  139.1055  169.0471 C.ar    1  UNL1        0.1470
      7 F         142.9125  138.0509  169.9237 F       1  UNL1       -0.2039
      8 C         141.2906  140.0562  169.6106 C.ar    1  UNL1        0.0299
      9 C         140.6828  141.1108  168.7340 C.ar    1  UNL1        0.0021
     10 C         141.0892  141.2146  167.2939 C.ar    1  UNL1        0.0008
     11 C         142.1033  140.2639  166.7303 C.ar    1  UNL1        0.0390
     12 H         145.1199  136.8066  166.6308 H       1  UNL1        0.2884
     13 H         144.4466  136.9648  168.1895 H       1  UNL1        0.2884
     14 C         140.0289  143.6116  164.3683 C.ar    1  UNL1        0.1387
     15 C         141.4656  143.8453  164.7306 C.ar    1  UNL1        0.0367
     16 C         142.3545  142.6830  165.0609 C.ar    1  UNL1        0.0035
     17 C         141.8067  141.2870  165.0289 C.ar    1  UNL1        0.0299
     18 C         140.3699  141.0533  164.6666 C.ar    1  UNL1        0.0035
     19 C         139.4811  142.2155  164.3363 C.ar    1  UNL1        0.0367
     20 C         139.0010  145.2313  162.6163 C.3     1  UNL1        0.2525
     21 O         139.1401  144.7738  164.0380 O.3     1  UNL1       -0.4714
     22 C         143.1019  140.2286  163.9190 C.ar    1  UNL1        0.0297
     23 C         144.4182  140.8484  163.5540 C.ar    1  UNL1        0.0004
     24 C         144.8246  140.9522  162.1139 C.ar    1  UNL1       -0.0002
     25 C         143.9147  140.4362  161.0388 C.ar    1  UNL1        0.0001
     26 C         142.5985  139.8164  161.4038 C.ar    1  UNL1        0.0028
     27 C         142.1921  139.7126  162.8439 C.ar    1  UNL1        0.0005
     28 C         141.6886  139.3004  160.3286 C.ar    1  UNL1        0.0384
     29 C         140.2043  139.4773  160.4534 C.ar    1  UNL1        0.1022
     30 N         139.2945  138.9613  159.3782 N.ar    1  UNL1       -0.2224
     31 C         139.8690  138.2683  158.1783 C.ar    1  UNL1        0.1989
     32 N         141.3533  138.0915  158.0535 N.ar    1  UNL1       -0.2224
     33 C         142.2631  138.6075  159.1287 C.ar    1  UNL1        0.1022
@<TRIPOS>BOND
     1    20    21    1
     2    21    14    1
     3    14    15   ar
     4    15    16   ar
     5    16    17   ar
     6    17     1    1
     7     1    22    1
     8    22    23   ar
     9    23    24   ar
    10    24    25   ar
    11    25    26   ar
    12    26    28    1
    13    28    29   ar
    14    29    30   ar
    15    30    31   ar
    16    31    32   ar
    17    32    33   ar
    18    26    27   ar
    19     1     2    1
    20     2     3    2
    21     3     4    1
    22     3     5    1
    23     5     6   ar
    24     6     7    1
    25     6     8   ar
    26     8     9   ar
    27     9    10   ar
    28    10    11   ar
    29    17    18   ar
    30    18    19   ar
    31    19    14   ar
    32    11     1    1
    33    27    22   ar
    34    11     5   ar
    35    33    28   ar
    36     4    12    1
    37     4    13    1
@<TRIPOS>MOLECULE
*****
 33 37 0 0 0
SMALL
GASTEIGER

@<TRIPOS>ATOM
      1 C         140.5863  140.8564  166.6827 C.3     1  UNL1        0.2308
      2 N         139.3888  140.1733  167.2739 N.2     1  UNL1       -0.0614
      3 C         139.5028  140.2489  168.7677 C.2     1  UNL1        0.3157
      4 N         138.5212  139.6924  169.7561 N.pl3   1  UNL1       -0.2464
      5 C         140.7706  140.9786  169.0996 C.ar    1  UNL1        0.1094
      6 C         141.4018  141.3496  170.4088 C.ar    1  UNL1        0.1470
      7 F         140.7321  140.9741  171.6974 F       1  UNL1       -0.2039
      8 C         142.7026  142.0961  170.4293 C.ar    1  UNL1        0.0299
      9 C         143.3723  142.4716  169.1406 C.ar    1  UNL1        0.0021
     10 C         142.7411  142.1005  167.8315 C.ar    1  UNL1        0.0008
     11 C         141.4403  141.3540  167.8110 C.ar    1  UNL1        0.0390
     12 H         137.7137  139.2269  169.4391 H       1  UNL1        0.2884
     13 H         138.6845  139.7926  170.7217 H       1  UNL1        0.2884
     14 C         143.7827  142.6727  164.0877 C.ar    1  UNL1        0.1387
     15 C         142.5180  143.4313  164.3614 C.ar    1  UNL1        0.0367
     16 C         141.4524  142.8259  165.2264 C.ar    1  UNL1        0.0035
     17 C         141.6517  141.4618  165.8177 C.ar    1  UNL1        0.0299
     18 C         142.9166  140.7032  165.5440 C.ar    1  UNL1        0.0035
     19 C         143.9820  141.3087  164.6791 C.ar    1  UNL1        0.0367
     20 C         144.8358  143.0420  161.7415 C.3     1  UNL1        0.2525
     21 O         144.8482  143.2782  163.2228 O.3     1  UNL1       -0.4714
     22 C         139.9550  140.4853  165.3735 C.ar    1  UNL1        0.0297
     23 C         138.4879  140.7112  165.1575 C.ar    1  UNL1        0.0004
     24 C         137.8567  140.3402  163.8484 C.ar    1  UNL1       -0.0002
     25 C         138.6925  139.7432  162.7553 C.ar    1  UNL1        0.0001
     26 C         140.1596  139.5173  162.9713 C.ar    1  UNL1        0.0028
     27 C         140.7908  139.8883  164.2804 C.ar    1  UNL1        0.0005
     28 C         140.9954  138.9203  161.8780 C.ar    1  UNL1        0.0384
     29 C         142.2887  138.2373  162.2107 C.ar    1  UNL1        0.1022
     30 N         143.1245  137.6402  161.1175 N.ar    1  UNL1       -0.2224
     31 C         142.6669  137.7263  159.6916 C.ar    1  UNL1        0.1989
     32 N         141.3735  138.4094  159.3589 N.ar    1  UNL1       -0.2224
     33 C         140.5378  139.0063  160.4521 C.ar    1  UNL1        0.1022
@<TRIPOS>BOND
     1    20    21    1
     2    21    14    1
     3    14    15   ar
     4    15    16   ar
     5    16    17   ar
     6    17     1    1
     7     1    22    1
     8    22    23   ar
     9    23    24   ar
    10    24    25   ar
    11    25    26   ar
    12    26    28    1
    13    28    29   ar
    14    29    30   ar
    15    30    31   ar
    16    31    32   ar
    17    32    33   ar
    18    26    27   ar
    19     1     2    1
    20     2     3    2
    21     3     4    1
    22     3     5    1
    23     5     6   ar
    24     6     7    1
    25     6     8   ar
    26     8     9   ar
    27     9    10   ar
    28    10    11   ar
    29    17    18   ar
    30    18    19   ar
    31    19    14   ar
    32    11     1    1
    33    27    22   ar
    34    11     5   ar
    35    33    28   ar
    36     4    12    1
    37     4    13    1
