@<TRIPOS>MOLECULE
*****
 30 33 0 0 0
SMALL
GASTEIGER

@<TRIPOS>ATOM
      1 C         140.3380  140.7170  161.1737 C.ar    1  UNL1        0.1303
      2 N         140.9300  140.0950  162.4036 N.ar    1  UNL1       -0.2097
      3 C         140.7910  138.6202  162.6392 C.ar    1  UNL1        0.2209
      4 N         140.0601  137.7674  161.6450 N.ar    1  UNL1       -0.2096
      5 C         139.4681  138.3895  160.4151 C.ar    1  UNL1        0.1330
      6 C         139.6071  139.8643  160.1795 C.ar    1  UNL1        0.1783
      7 F         139.0150  140.4864  158.9496 F       1  UNL1       -0.2009
      8 C         139.9581  145.9522  161.7485 C.3     1  UNL1        0.0718
      9 C         140.3023  144.5983  161.2023 C.ar    1  UNL1        0.1208
     10 N         141.0792  144.3247  159.9486 N.ar    1  UNL1       -0.2293
     11 C         141.1871  142.8376  159.7853 C.ar    1  UNL1        0.1189
     12 C         140.4770  142.1919  160.9380 C.ar    1  UNL1        0.1003
     13 N         139.9301  143.2801  161.8138 N.ar    1  UNL1       -0.3155
     14 C         139.1484  143.0845  163.0789 C.3     1  UNL1        0.0868
     15 C         137.6598  142.9091  163.0212 C.3     1  UNL1        0.0245
     16 C         139.8552  143.0643  164.4018 C.3     1  UNL1        0.0245
     17 N         141.3830  137.9981  163.8691 N.pl3   1  UNL1       -0.2825
     18 H         141.8436  137.1300  163.8087 H       1  UNL1        0.1551
     19 C         141.2733  138.6986  165.1909 C.ar    1  UNL1        0.0505
     20 C         142.4900  138.8719  166.0511 C.ar    1  UNL1        0.0159
     21 C         142.3803  139.5724  167.3730 C.ar    1  UNL1        0.0158
     22 C         141.0539  140.0996  167.8346 C.ar    1  UNL1        0.0481
     23 C         139.8374  139.9262  166.9745 C.ar    1  UNL1        0.0158
     24 C         139.9471  139.2257  165.6526 C.ar    1  UNL1        0.0159
     25 N         140.9442  140.8001  169.1565 N.pl3   1  UNL1       -0.3028
     26 C         139.9918  141.9473  169.3205 C.3     1  UNL1        0.1231
     27 C         139.8821  142.6478  170.6424 C.3     1  UNL1        0.1636
     28 O         140.7248  142.2011  171.8001 O.3     1  UNL1       -0.3501
     29 C         141.6772  141.0539  171.6360 C.3     1  UNL1        0.1636
     30 C         141.7869  140.3534  170.3142 C.3     1  UNL1        0.1231
@<TRIPOS>BOND
     1     8     9    1
     2     9    10   ar
     3    10    11   ar
     4    11    12   ar
     5    12     1    1
     6     1     2   ar
     7     2     3   ar
     8     3    17    1
     9    17    19    1
    10    19    20   ar
    11    20    21   ar
    12    21    22   ar
    13    22    25    1
    14    25    26    1
    15    26    27    1
    16    27    28    1
    17    28    29    1
    18    29    30    1
    19    22    23   ar
    20    23    24   ar
    21     3     4   ar
    22     4     5   ar
    23     5     6   ar
    24     6     7    1
    25    12    13   ar
    26    13    14    1
    27    14    15    1
    28    14    16    1
    29    13     9   ar
    30     6     1   ar
    31    24    19   ar
    32    30    25    1
    33    17    18    1
@<TRIPOS>MOLECULE
*****
 30 33 0 0 0
SMALL
GASTEIGER

@<TRIPOS>ATOM
      1 C         140.2599  140.7164  161.2182 C.ar    1  UNL1        0.1303
      2 N         140.8605  140.0857  162.4394 N.ar    1  UNL1       -0.2097
      3 C         140.7205  138.6097  162.6672 C.ar    1  UNL1        0.2209
      4 N         139.9798  137.7645  161.6736 N.ar    1  UNL1       -0.2096
      5 C         139.3792  138.3952  160.4524 C.ar    1  UNL1        0.1330
      6 C         139.5193  139.8712  160.2247 C.ar    1  UNL1        0.1783
      7 F         138.9187  140.5020  159.0034 F       1  UNL1       -0.2009
      8 C         139.9744  145.9481  161.8733 C.3     1  UNL1        0.0718
      9 C         140.2687  144.5972  161.2916 C.ar    1  UNL1        0.1208
     10 N         140.9620  144.3303  159.9884 N.ar    1  UNL1       -0.2293
     11 C         141.0431  142.8441  159.8024 C.ar    1  UNL1        0.1189
     12 C         140.3999  142.1925  160.9905 C.ar    1  UNL1        0.1003
     13 N         139.9213  143.2759  161.9108 N.ar    1  UNL1       -0.3155
     14 C         139.2186  143.0736  163.2205 C.3     1  UNL1        0.0868
     15 C         140.0085  143.0158  164.4944 C.3     1  UNL1        0.0245
     16 C         137.7260  142.9290  163.2564 C.3     1  UNL1        0.0245
     17 N         141.3211  137.9789  163.8884 N.pl3   1  UNL1       -0.2825
     18 H         141.7747  137.1079  163.8200 H       1  UNL1        0.1551
     19 C         141.2305  138.6754  165.2139 C.ar    1  UNL1        0.0505
     20 C         142.4681  138.8923  166.0333 C.ar    1  UNL1        0.0159
     21 C         142.3775  139.5887  167.3587 C.ar    1  UNL1        0.0158
     22 C         141.0493  140.0682  167.8647 C.ar    1  UNL1        0.0481
     23 C         139.8118  139.8513  167.0453 C.ar    1  UNL1        0.0158
     24 C         139.9023  139.1549  165.7199 C.ar    1  UNL1        0.0159
     25 N         140.9587  140.7647  169.1902 N.pl3   1  UNL1       -0.3028
     26 C         141.8123  140.3094  170.3365 C.3     1  UNL1        0.1231
     27 C         141.7217  141.0058  171.6620 C.3     1  UNL1        0.1636
     28 O         140.7775  142.1575  171.8410 O.3     1  UNL1       -0.3501
     29 C         139.9239  142.6127  170.6947 C.3     1  UNL1        0.1636
     30 C         140.0145  141.9163  169.3693 C.3     1  UNL1        0.1231
@<TRIPOS>BOND
     1     8     9    1
     2     9    10   ar
     3    10    11   ar
     4    11    12   ar
     5    12     1    1
     6     1     2   ar
     7     2     3   ar
     8     3    17    1
     9    17    19    1
    10    19    20   ar
    11    20    21   ar
    12    21    22   ar
    13    22    25    1
    14    25    26    1
    15    26    27    1
    16    27    28    1
    17    28    29    1
    18    29    30    1
    19    22    23   ar
    20    23    24   ar
    21     3     4   ar
    22     4     5   ar
    23     5     6   ar
    24     6     7    1
    25    12    13   ar
    26    13    14    1
    27    14    15    1
    28    14    16    1
    29    13     9   ar
    30     6     1   ar
    31    24    19   ar
    32    30    25    1
    33    17    18    1
@<TRIPOS>MOLECULE
*****
 30 33 0 0 0
SMALL
GASTEIGER

@<TRIPOS>ATOM
      1 C         140.2078  139.0433  160.3159 C.ar    1  UNL1        0.1303
      2 N         140.2723  138.3771  161.6582 N.ar    1  UNL1       -0.2097
      3 C         139.0340  138.2567  162.4960 C.ar    1  UNL1        0.2209
      4 N         137.7311  138.8025  161.9915 N.ar    1  UNL1       -0.2096
      5 C         137.6666  139.4687  160.6491 C.ar    1  UNL1        0.1330
      6 C         138.9049  139.5891  159.8113 C.ar    1  UNL1        0.1783
      7 F         138.8404  140.2553  158.4689 F       1  UNL1       -0.2009
      8 C         144.4157  141.0451  157.8324 C.3     1  UNL1        0.0718
      9 C         143.3803  140.0839  158.3365 C.ar    1  UNL1        0.1208
     10 N         143.3233  138.6143  158.0410 N.ar    1  UNL1       -0.2293
     11 C         142.1279  138.0457  158.7465 C.ar    1  UNL1        0.1189
     12 C         141.4462  139.1637  159.4780 C.ar    1  UNL1        0.1003
     13 N         142.2202  140.4234  159.2246 N.ar    1  UNL1       -0.3155
     14 C         141.8918  141.7837  159.7646 C.3     1  UNL1        0.0868
     15 C         142.3783  142.1884  161.1245 C.3     1  UNL1        0.0245
     16 C         141.0768  142.7395  158.9446 C.3     1  UNL1        0.0245
     17 N         139.0985  137.5905  163.8385 N.pl3   1  UNL1       -0.2825
     18 H         138.9336  136.6230  163.9163 H       1  UNL1        0.1551
     19 C         139.4142  138.3984  165.0623 C.ar    1  UNL1        0.0505
     20 C         138.3465  138.6633  166.0821 C.ar    1  UNL1        0.0159
     21 C         138.6623  139.4712  167.3059 C.ar    1  UNL1        0.0158
     22 C         140.0457  140.0141  167.5098 C.ar    1  UNL1        0.0481
     23 C         141.1132  139.7492  166.4900 C.ar    1  UNL1        0.0158
     24 C         140.7975  138.9413  165.2662 C.ar    1  UNL1        0.0159
     25 N         140.3614  140.8220  168.7336 N.pl3   1  UNL1       -0.3028
     26 C         140.4028  142.3194  168.6537 C.3     1  UNL1        0.1231
     27 C         140.7185  143.1273  169.8775 C.3     1  UNL1        0.1636
     28 O         140.9928  142.4378  171.1812 O.3     1  UNL1       -0.3501
     29 C         140.9514  140.9405  171.2610 C.3     1  UNL1        0.1636
     30 C         140.6357  140.1326  170.0372 C.3     1  UNL1        0.1231
@<TRIPOS>BOND
     1     8     9    1
     2     9    10   ar
     3    10    11   ar
     4    11    12   ar
     5    12     1    1
     6     1     2   ar
     7     2     3   ar
     8     3    17    1
     9    17    19    1
    10    19    20   ar
    11    20    21   ar
    12    21    22   ar
    13    22    25    1
    14    25    26    1
    15    26    27    1
    16    27    28    1
    17    28    29    1
    18    29    30    1
    19    22    23   ar
    20    23    24   ar
    21     3     4   ar
    22     4     5   ar
    23     5     6   ar
    24     6     7    1
    25    12    13   ar
    26    13    14    1
    27    14    15    1
    28    14    16    1
    29    13     9   ar
    30     6     1   ar
    31    24    19   ar
    32    30    25    1
    33    17    18    1
@<TRIPOS>MOLECULE
*****
 30 33 0 0 0
SMALL
GASTEIGER

@<TRIPOS>ATOM
      1 C         139.8052  139.4827  166.9334 C.ar    1  UNL1        0.1303
      2 N         141.0805  139.2516  166.1784 N.ar    1  UNL1       -0.2097
      3 C         141.1083  138.2858  165.0310 C.ar    1  UNL1        0.2209
      4 N         139.8607  137.5511  164.6387 N.ar    1  UNL1       -0.2096
      5 C         138.5854  137.7822  165.3938 C.ar    1  UNL1        0.1330
      6 C         138.5577  138.7480  166.5412 C.ar    1  UNL1        0.1783
      7 F         137.2823  138.9791  167.2963 F       1  UNL1       -0.2009
      8 C         140.5098  143.8146  169.8694 C.3     1  UNL1        0.0718
      9 C         140.1013  142.4397  169.4303 C.ar    1  UNL1        0.1208
     10 N         139.3680  141.4298  170.2626 N.ar    1  UNL1       -0.2293
     11 C         139.1679  140.1992  169.4286 C.ar    1  UNL1        0.1189
     12 C         139.7774  140.4485  168.0809 C.ar    1  UNL1        0.1003
     13 N         140.3543  141.8332  168.0820 N.ar    1  UNL1       -0.3155
     14 C         141.0602  142.4951  166.9359 C.3     1  UNL1        0.0868
     15 C         140.2715  143.2300  165.8929 C.3     1  UNL1        0.0245
     16 C         142.5548  142.4223  166.8328 C.3     1  UNL1        0.0245
     17 N         142.3836  138.0547  164.2759 N.pl3   1  UNL1       -0.2825
     18 H         143.0351  137.3922  164.6012 H       1  UNL1        0.1551
     19 C         142.6662  138.8330  163.0252 C.ar    1  UNL1        0.0505
     20 C         141.9464  140.1233  162.7660 C.ar    1  UNL1        0.0159
     21 C         142.2290  140.9017  161.5153 C.ar    1  UNL1        0.0158
     22 C         143.2314  140.3897  160.5237 C.ar    1  UNL1        0.0481
     23 C         143.9511  139.0995  160.7829 C.ar    1  UNL1        0.0158
     24 C         143.6685  138.3211  162.0336 C.ar    1  UNL1        0.0159
     25 N         143.5140  141.1680  159.2730 N.pl3   1  UNL1       -0.3028
     26 C         143.1186  142.6122  159.1829 C.3     1  UNL1        0.1231
     27 C         143.4012  143.3906  157.9321 C.3     1  UNL1        0.1636
     28 O         144.0792  142.7247  156.7715 O.3     1  UNL1       -0.3501
     29 C         144.4746  141.2806  156.8616 C.3     1  UNL1        0.1636
     30 C         144.1920  140.5023  158.1124 C.3     1  UNL1        0.1231
@<TRIPOS>BOND
     1     8     9    1
     2     9    10   ar
     3    10    11   ar
     4    11    12   ar
     5    12     1    1
     6     1     2   ar
     7     2     3   ar
     8     3    17    1
     9    17    19    1
    10    19    20   ar
    11    20    21   ar
    12    21    22   ar
    13    22    25    1
    14    25    26    1
    15    26    27    1
    16    27    28    1
    17    28    29    1
    18    29    30    1
    19    22    23   ar
    20    23    24   ar
    21     3     4   ar
    22     4     5   ar
    23     5     6   ar
    24     6     7    1
    25    12    13   ar
    26    13    14    1
    27    14    15    1
    28    14    16    1
    29    13     9   ar
    30     6     1   ar
    31    24    19   ar
    32    30    25    1
    33    17    18    1
@<TRIPOS>MOLECULE
*****
 30 33 0 0 0
SMALL
GASTEIGER

@<TRIPOS>ATOM
      1 C         142.6516  140.2555  165.4200 C.ar    1  UNL1        0.1303
      2 N         142.8868  141.5463  164.6931 N.ar    1  UNL1       -0.2097
      3 C         144.1560  141.7514  163.9204 C.ar    1  UNL1        0.2209
      4 N         145.1900  140.6657  163.8747 N.ar    1  UNL1       -0.2096
      5 C         144.9548  139.3749  164.6017 C.ar    1  UNL1        0.1330
      6 C         143.6856  139.1698  165.3743 C.ar    1  UNL1        0.1783
      7 F         143.4503  137.8789  166.1012 F       1  UNL1       -0.2009
      8 C         137.8257  138.6231  166.8083 C.3     1  UNL1        0.0718
      9 C         139.1641  139.3000  166.8307 C.ar    1  UNL1        0.1208
     10 N         139.6943  140.1692  167.9324 N.ar    1  UNL1       -0.2293
     11 C         141.0652  140.6329  167.5380 C.ar    1  UNL1        0.1189
     12 C         141.3823  140.0503  166.1926 C.ar    1  UNL1        0.1003
     13 N         140.2074  139.2266  165.7555 N.ar    1  UNL1       -0.3155
     14 C         140.0955  138.4633  164.4691 C.3     1  UNL1        0.0868
     15 C         140.7977  137.1469  164.3144 C.3     1  UNL1        0.0245
     16 C         139.2813  139.0165  163.3372 C.3     1  UNL1        0.0245
     17 N         144.3913  143.0422  163.1935 N.pl3   1  UNL1       -0.2825
     18 H         145.1040  143.6524  163.4919 H       1  UNL1        0.1551
     19 C         143.5407  143.4033  162.0119 C.ar    1  UNL1        0.0505
     20 C         143.8400  142.8154  160.6647 C.ar    1  UNL1        0.0159
     21 C         142.9894  143.1765  159.4831 C.ar    1  UNL1        0.0158
     22 C         141.8396  144.1256  159.6487 C.ar    1  UNL1        0.0481
     23 C         141.5404  144.7134  160.9959 C.ar    1  UNL1        0.0158
     24 C         142.3910  144.3523  162.1775 C.ar    1  UNL1        0.0159
     25 N         140.9890  144.4867  158.4671 N.pl3   1  UNL1       -0.3028
     26 C         140.0305  143.4828  157.8982 C.3     1  UNL1        0.1231
     27 C         139.1800  143.8439  156.7166 C.3     1  UNL1        0.1636
     28 O         139.2879  145.2089  156.1040 O.3     1  UNL1       -0.3501
     29 C         140.2464  146.2127  156.6729 C.3     1  UNL1        0.1636
     30 C         141.0969  145.8516  157.8545 C.3     1  UNL1        0.1231
@<TRIPOS>BOND
     1     8     9    1
     2     9    10   ar
     3    10    11   ar
     4    11    12   ar
     5    12     1    1
     6     1     2   ar
     7     2     3   ar
     8     3    17    1
     9    17    19    1
    10    19    20   ar
    11    20    21   ar
    12    21    22   ar
    13    22    25    1
    14    25    26    1
    15    26    27    1
    16    27    28    1
    17    28    29    1
    18    29    30    1
    19    22    23   ar
    20    23    24   ar
    21     3     4   ar
    22     4     5   ar
    23     5     6   ar
    24     6     7    1
    25    12    13   ar
    26    13    14    1
    27    14    15    1
    28    14    16    1
    29    13     9   ar
    30     6     1   ar
    31    24    19   ar
    32    30    25    1
    33    17    18    1
@<TRIPOS>MOLECULE
*****
 30 33 0 0 0
SMALL
GASTEIGER

@<TRIPOS>ATOM
      1 C         141.5444  141.1869  161.2119 C.ar    1  UNL1        0.1303
      2 N         142.1207  140.5468  162.4399 N.ar    1  UNL1       -0.2097
      3 C         143.4020  139.7720  162.3508 C.ar    1  UNL1        0.2209
      4 N         144.1068  139.6372  161.0336 N.ar    1  UNL1       -0.2096
      5 C         143.5305  140.2773  159.8056 C.ar    1  UNL1        0.1330
      6 C         142.2493  141.0521  159.8947 C.ar    1  UNL1        0.1783
      7 F         141.6728  141.6923  158.6667 F       1  UNL1       -0.2009
      8 C         137.7207  144.3854  162.9528 C.3     1  UNL1        0.0718
      9 C         138.5055  143.4320  162.1013 C.ar    1  UNL1        0.1208
     10 N         138.0774  142.8766  160.7753 N.ar    1  UNL1       -0.2293
     11 C         139.1636  141.9680  160.2807 C.ar    1  UNL1        0.1189
     12 C         140.2631  141.9618  161.3011 C.ar    1  UNL1        0.1003
     13 N         139.8564  142.8666  162.4262 N.ar    1  UNL1       -0.3155
     14 C         140.6595  143.1554  163.6597 C.3     1  UNL1        0.0868
     15 C         140.2544  142.5591  164.9751 C.3     1  UNL1        0.0245
     16 C         141.8678  144.0405  163.5779 C.3     1  UNL1        0.0245
     17 N         143.9784  139.1318  163.5788 N.pl3   1  UNL1       -0.2825
     18 H         144.6122  138.3835  163.4925 H       1  UNL1        0.1551
     19 C         143.5890  139.6319  164.9383 C.ar    1  UNL1        0.0505
     20 C         143.1059  138.6686  165.9818 C.ar    1  UNL1        0.0159
     21 C         142.7166  139.1687  167.3414 C.ar    1  UNL1        0.0158
     22 C         142.8103  140.6321  167.6574 C.ar    1  UNL1        0.0481
     23 C         143.2933  141.5953  166.6139 C.ar    1  UNL1        0.0158
     24 C         143.6827  141.0952  165.2544 C.ar    1  UNL1        0.0159
     25 N         142.4209  141.1322  169.0169 N.pl3   1  UNL1       -0.3028
     26 C         143.0039  142.4112  169.5409 C.3     1  UNL1        0.1231
     27 C         142.6145  142.9113  170.9004 C.3     1  UNL1        0.1636
     28 O         141.6422  142.1324  171.7359 O.3     1  UNL1       -0.3501
     29 C         141.0592  140.8536  171.2119 C.3     1  UNL1        0.1636
     30 C         141.4486  140.3535  169.8524 C.3     1  UNL1        0.1231
@<TRIPOS>BOND
     1     8     9    1
     2     9    10   ar
     3    10    11   ar
     4    11    12   ar
     5    12     1    1
     6     1     2   ar
     7     2     3   ar
     8     3    17    1
     9    17    19    1
    10    19    20   ar
    11    20    21   ar
    12    21    22   ar
    13    22    25    1
    14    25    26    1
    15    26    27    1
    16    27    28    1
    17    28    29    1
    18    29    30    1
    19    22    23   ar
    20    23    24   ar
    21     3     4   ar
    22     4     5   ar
    23     5     6   ar
    24     6     7    1
    25    12    13   ar
    26    13    14    1
    27    14    15    1
    28    14    16    1
    29    13     9   ar
    30     6     1   ar
    31    24    19   ar
    32    30    25    1
    33    17    18    1
@<TRIPOS>MOLECULE
*****
 30 33 0 0 0
SMALL
GASTEIGER

@<TRIPOS>ATOM
      1 C         142.6151  140.2860  165.6479 C.ar    1  UNL1        0.1303
      2 N         142.8612  141.5850  164.9394 N.ar    1  UNL1       -0.2097
      3 C         144.0897  141.7585  164.0966 C.ar    1  UNL1        0.2209
      4 N         145.0723  140.6331  163.9622 N.ar    1  UNL1       -0.2096
      5 C         144.8262  139.3341  164.6707 C.ar    1  UNL1        0.1330
      6 C         143.5977  139.1606  165.5136 C.ar    1  UNL1        0.1783
      7 F         143.3516  137.8615  166.2221 F       1  UNL1       -0.2009
      8 C         139.2948  140.3265  169.7534 C.3     1  UNL1        0.0718
      9 C         139.8603  140.1310  168.3779 C.ar    1  UNL1        0.1208
     10 N         139.1316  139.5594  167.1980 N.ar    1  UNL1       -0.2293
     11 C         140.0748  139.5479  166.0317 C.ar    1  UNL1        0.1189
     12 C         141.3865  140.1123  166.4908 C.ar    1  UNL1        0.1003
     13 N         141.2539  140.4727  167.9409 N.ar    1  UNL1       -0.3155
     14 C         142.3266  141.0700  168.8026 C.3     1  UNL1        0.0868
     15 C         142.7513  142.4933  168.5930 C.3     1  UNL1        0.0245
     16 C         142.9748  140.2440  169.8738 C.3     1  UNL1        0.0245
     17 N         144.3358  143.0576  163.3880 N.pl3   1  UNL1       -0.2825
     18 H         145.0385  143.6679  163.7088 H       1  UNL1        0.1551
     19 C         143.5112  143.4267  162.1906 C.ar    1  UNL1        0.0505
     20 C         142.3316  144.3405  162.3450 C.ar    1  UNL1        0.0159
     21 C         141.5070  144.7096  161.1476 C.ar    1  UNL1        0.0158
     22 C         141.8620  144.1649  159.7958 C.ar    1  UNL1        0.0481
     23 C         143.0415  143.2512  159.6414 C.ar    1  UNL1        0.0158
     24 C         143.8661  142.8821  160.8388 C.ar    1  UNL1        0.0159
     25 N         141.0373  144.5340  158.5984 N.pl3   1  UNL1       -0.3028
     26 C         141.2048  145.8804  157.9586 C.3     1  UNL1        0.1231
     27 C         140.3802  146.2495  156.7612 C.3     1  UNL1        0.1636
     28 O         139.3881  145.2722  156.2036 O.3     1  UNL1       -0.3501
     29 C         139.2207  143.9259  156.8434 C.3     1  UNL1        0.1636
     30 C         140.0453  143.5568  158.0408 C.3     1  UNL1        0.1231
@<TRIPOS>BOND
     1     8     9    1
     2     9    10   ar
     3    10    11   ar
     4    11    12   ar
     5    12     1    1
     6     1     2   ar
     7     2     3   ar
     8     3    17    1
     9    17    19    1
    10    19    20   ar
    11    20    21   ar
    12    21    22   ar
    13    22    25    1
    14    25    26    1
    15    26    27    1
    16    27    28    1
    17    28    29    1
    18    29    30    1
    19    22    23   ar
    20    23    24   ar
    21     3     4   ar
    22     4     5   ar
    23     5     6   ar
    24     6     7    1
    25    12    13   ar
    26    13    14    1
    27    14    15    1
    28    14    16    1
    29    13     9   ar
    30     6     1   ar
    31    24    19   ar
    32    30    25    1
    33    17    18    1
@<TRIPOS>MOLECULE
*****
 30 33 0 0 0
SMALL
GASTEIGER

@<TRIPOS>ATOM
      1 C         142.2472  140.4976  161.0278 C.ar    1  UNL1        0.1303
      2 N         141.7254  139.7722  162.2325 N.ar    1  UNL1       -0.2097
      3 C         142.4031  138.5206  162.7061 C.ar    1  UNL1        0.2209
      4 N         143.6025  137.9945  161.9749 N.ar    1  UNL1       -0.2096
      5 C         144.1242  138.7199  160.7702 C.ar    1  UNL1        0.1330
      6 C         143.4466  139.9714  160.2966 C.ar    1  UNL1        0.1783
      7 F         143.9683  140.6969  159.0918 F       1  UNL1       -0.2009
      8 C         140.6076  145.5065  160.7057 C.3     1  UNL1        0.0718
      9 C         140.8159  144.0516  160.4061 C.ar    1  UNL1        0.1208
     10 N         140.2376  143.2989  159.2445 N.ar    1  UNL1       -0.2293
     11 C         140.7034  141.8760  159.3360 C.ar    1  UNL1        0.1189
     12 C         141.5695  141.7492  160.5541 C.ar    1  UNL1        0.1003
     13 N         141.6390  143.0938  161.2154 N.ar    1  UNL1       -0.3155
     14 C         142.3984  143.4228  162.4665 C.3     1  UNL1        0.0868
     15 C         141.7693  143.1916  163.8084 C.3     1  UNL1        0.0245
     16 C         143.7869  143.9830  162.3757 C.3     1  UNL1        0.0245
     17 N         141.8813  137.7951  163.9110 N.pl3   1  UNL1       -0.2825
     18 H         141.6946  136.8298  163.8617 H       1  UNL1        0.1551
     19 C         141.6442  138.5405  165.1909 C.ar    1  UNL1        0.0505
     20 C         140.2663  139.0252  165.5323 C.ar    1  UNL1        0.0159
     21 C         140.0291  139.7706  166.8122 C.ar    1  UNL1        0.0158
     22 C         141.1699  140.0313  167.7506 C.ar    1  UNL1        0.0481
     23 C         142.5478  139.5467  167.4092 C.ar    1  UNL1        0.0158
     24 C         142.7849  138.8013  166.1293 C.ar    1  UNL1        0.0159
     25 N         140.9328  140.7768  169.0305 N.pl3   1  UNL1       -0.3028
     26 C         141.2483  140.1281  170.3458 C.3     1  UNL1        0.1231
     27 C         141.0112  140.8735  171.6257 C.3     1  UNL1        0.1636
     28 O         140.4585  142.2676  171.5903 O.3     1  UNL1       -0.3501
     29 C         140.1430  142.9162  170.2751 C.3     1  UNL1        0.1636
     30 C         140.3801  142.1708  168.9953 C.3     1  UNL1        0.1231
@<TRIPOS>BOND
     1     8     9    1
     2     9    10   ar
     3    10    11   ar
     4    11    12   ar
     5    12     1    1
     6     1     2   ar
     7     2     3   ar
     8     3    17    1
     9    17    19    1
    10    19    20   ar
    11    20    21   ar
    12    21    22   ar
    13    22    25    1
    14    25    26    1
    15    26    27    1
    16    27    28    1
    17    28    29    1
    18    29    30    1
    19    22    23   ar
    20    23    24   ar
    21     3     4   ar
    22     4     5   ar
    23     5     6   ar
    24     6     7    1
    25    12    13   ar
    26    13    14    1
    27    14    15    1
    28    14    16    1
    29    13     9   ar
    30     6     1   ar
    31    24    19   ar
    32    30    25    1
    33    17    18    1
@<TRIPOS>MOLECULE
*****
 30 33 0 0 0
SMALL
GASTEIGER

@<TRIPOS>ATOM
      1 C         141.5204  139.8537  165.5886 C.ar    1  UNL1        0.1303
      2 N         140.2535  140.2352  164.8821 N.ar    1  UNL1       -0.2097
      3 C         139.5204  139.2201  164.0563 C.ar    1  UNL1        0.2209
      4 N         140.0543  137.8234  163.9369 N.ar    1  UNL1       -0.2096
      5 C         141.3212  137.4418  164.6434 C.ar    1  UNL1        0.1330
      6 C         142.0543  138.4570  165.4693 C.ar    1  UNL1        0.1783
      7 F         143.3214  138.0754  166.1758 F       1  UNL1       -0.2009
      8 C         143.4347  142.5340  169.7157 C.3     1  UNL1        0.0718
      9 C         143.1335  142.1008  168.3116 C.ar    1  UNL1        0.1208
     10 N         143.6300  142.7609  167.0594 N.ar    1  UNL1       -0.2293
     11 C         143.0862  141.9995  165.8870 C.ar    1  UNL1        0.1189
     12 C         142.2536  140.8688  166.4145 C.ar    1  UNL1        0.1003
     13 N         142.2828  140.9314  167.9130 N.ar    1  UNL1       -0.3155
     14 C         141.5841  139.9899  168.8486 C.3     1  UNL1        0.0868
     15 C         142.3782  138.9996  169.6476 C.3     1  UNL1        0.0245
     16 C         140.0911  140.0388  168.9851 C.3     1  UNL1        0.0245
     17 N         138.2534  139.6016  163.3497 N.pl3   1  UNL1       -0.2825
     18 H         137.3820  139.3400  163.7260 H       1  UNL1        0.1551
     19 C         138.3140  140.3817  162.0700 C.ar    1  UNL1        0.0505
     20 C         138.1132  139.6850  160.7568 C.ar    1  UNL1        0.0159
     21 C         138.1739  140.4651  159.4770 C.ar    1  UNL1        0.0158
     22 C         138.4353  141.9418  159.5104 C.ar    1  UNL1        0.0481
     23 C         138.6361  142.6384  160.8236 C.ar    1  UNL1        0.0158
     24 C         138.5755  141.8583  162.1034 C.ar    1  UNL1        0.0159
     25 N         138.4960  142.7219  158.2307 N.pl3   1  UNL1       -0.3028
     26 C         137.4570  142.5055  157.1705 C.3     1  UNL1        0.1231
     27 C         137.5177  143.2856  155.8907 C.3     1  UNL1        0.1636
     28 O         138.6173  144.2820  155.6711 O.3     1  UNL1       -0.3501
     29 C         139.6561  144.4983  156.7312 C.3     1  UNL1        0.1636
     30 C         139.5955  143.7182  158.0110 C.3     1  UNL1        0.1231
@<TRIPOS>BOND
     1     8     9    1
     2     9    10   ar
     3    10    11   ar
     4    11    12   ar
     5    12     1    1
     6     1     2   ar
     7     2     3   ar
     8     3    17    1
     9    17    19    1
    10    19    20   ar
    11    20    21   ar
    12    21    22   ar
    13    22    25    1
    14    25    26    1
    15    26    27    1
    16    27    28    1
    17    28    29    1
    18    29    30    1
    19    22    23   ar
    20    23    24   ar
    21     3     4   ar
    22     4     5   ar
    23     5     6   ar
    24     6     7    1
    25    12    13   ar
    26    13    14    1
    27    14    15    1
    28    14    16    1
    29    13     9   ar
    30     6     1   ar
    31    24    19   ar
    32    30    25    1
    33    17    18    1
