@<TRIPOS>MOLECULE
*****
 28 30 0 0 0
SMALL
GASTEIGER

@<TRIPOS>ATOM
      1 C         142.5147  140.2404  167.3114 C.3     1  UNL1        0.0721
      2 C         143.3076  144.1852  164.2624 C.3     1  UNL1        0.0061
      3 C         142.2082  143.3067  164.7818 C.3     1  UNL1        0.0380
      4 C         142.6329  142.2243  165.7295 C.3     1  UNL1        0.0764
      5 N         141.7838  141.1947  166.4142 N.3     1  UNL1       -0.2721
      6 C         140.3003  140.9931  166.3205 C.3     1  UNL1        0.0768
      7 C         139.2996  141.7716  165.5187 C.3     1  UNL1        0.0433
      8 C         139.5352  142.9437  164.6128 C.ar    1  UNL1       -0.0247
      9 C         138.2549  143.4285  163.9998 C.ar    1  UNL1       -0.0037
     10 C         138.2691  144.5965  163.0589 C.ar    1  UNL1        0.0111
     11 C         139.5636  145.2798  162.7309 C.ar    1  UNL1        0.0573
     12 CL        139.5777  146.4479  161.7899 Cl      1  UNL1       -0.0823
     13 C         140.8438  144.7949  163.3439 C.ar    1  UNL1        0.0069
     14 C         140.8296  143.6269  164.2848 C.ar    1  UNL1       -0.0242
     15 C         143.0363  138.9454  166.7629 C.3     1  UNL1        0.0173
     16 C         142.9678  138.6731  165.2894 C.3     1  UNL1        0.0015
     17 C         141.8100  137.9069  164.7214 C.3     1  UNL1        0.0017
     18 C         141.7414  137.6347  163.2479 C.3     1  UNL1        0.0196
     19 C         142.8306  138.1286  162.3424 C.3     1  UNL1        0.0730
     20 C         143.9883  138.8948  162.9105 C.3     1  UNL1        0.0196
     21 C         144.0568  139.1671  164.3840 C.3     1  UNL1        0.0017
     22 N         142.7620  137.8564  160.8689 N.am    1  UNL1       -0.2904
     23 C         141.8886  138.7018  159.9899 C.2     1  UNL1        0.3040
     24 O         141.0839  139.8193  160.5844 O.2     1  UNL1       -0.2526
     25 N         141.8201  138.4295  158.5164 N.am    1  UNL1       -0.2607
     26 C         140.9467  139.2748  157.6374 C.3     1  UNL1        0.1165
     27 C         142.6249  137.3119  157.9219 C.3     1  UNL1        0.1165
     28 H         143.2903  137.1229  160.4788 H       1  UNL1        0.1509
@<TRIPOS>BOND
     1     3     2    1
     2     3     4    1
     3     4     5    1
     4     5     1    1
     5     1    15    1
     6    16    15    1
     7    16    17    1
     8    17    18    1
     9    18    19    1
    10    19    22    1
    11    22    23   am
    12    23    24    2
    13    23    25   am
    14    25    26    1
    15    25    27    1
    16    19    20    1
    17    20    21    1
    18     5     6    1
    19     6     7    1
    20     7     8    1
    21     8     9   ar
    22     9    10   ar
    23    10    11   ar
    24    11    12    1
    25    11    13   ar
    26    13    14   ar
    27    14     3    1
    28    21    16    1
    29    14     8   ar
    30    22    28    1
@<TRIPOS>MOLECULE
*****
 28 30 0 0 0
SMALL
GASTEIGER

@<TRIPOS>ATOM
      1 C         138.6485  139.0807  162.7704 C.3     1  UNL1        0.0721
      2 C         140.7672  143.1263  164.9223 C.3     1  UNL1        0.0061
      3 C         140.1080  141.8241  165.2682 C.3     1  UNL1        0.0380
      4 C         139.6571  140.9933  164.1035 C.3     1  UNL1        0.0764
      5 N         138.9737  139.6581  164.1161 N.3     1  UNL1       -0.2721
      6 C         138.5725  138.8238  165.2964 C.3     1  UNL1        0.0768
      7 C         138.7556  139.1188  166.7556 C.3     1  UNL1        0.0433
      8 C         139.3852  140.3209  167.3951 C.ar    1  UNL1       -0.0247
      9 C         139.3658  140.2189  168.8915 C.ar    1  UNL1       -0.0037
     10 C         139.9484  141.3208  169.7258 C.ar    1  UNL1        0.0111
     11 C         140.5503  142.5248  169.0639 C.ar    1  UNL1        0.0573
     12 CL        141.1328  143.6268  169.8984 Cl      1  UNL1       -0.0823
     13 C         140.5696  142.6268  167.5675 C.ar    1  UNL1        0.0069
     14 C         139.9870  141.5248  166.7331 C.ar    1  UNL1       -0.0242
     15 C         139.5083  137.9962  162.1919 C.3     1  UNL1        0.0173
     16 C         140.4960  138.3189  161.1102 C.3     1  UNL1        0.0015
     17 C         141.9478  137.9913  161.2981 C.3     1  UNL1        0.0017
     18 C         142.9355  138.3140  160.2163 C.3     1  UNL1        0.0196
     19 C         142.4715  138.9642  158.9466 C.3     1  UNL1        0.0730
     20 C         141.0198  139.2918  158.7588 C.3     1  UNL1        0.0196
     21 C         140.0321  138.9691  159.8405 C.3     1  UNL1        0.0017
     22 N         143.4593  139.2869  157.8648 N.am    1  UNL1       -0.2904
     23 C         144.2450  140.5634  157.9231 C.2     1  UNL1        0.3040
     24 O         144.0430  141.5171  159.0631 O.2     1  UNL1       -0.2526
     25 N         145.2328  140.8860  156.8413 N.am    1  UNL1       -0.2607
     26 C         146.0185  142.1624  156.8995 C.3     1  UNL1        0.1165
     27 C         145.4348  139.9323  155.7013 C.3     1  UNL1        0.1165
     28 H         143.5918  138.6610  157.1166 H       1  UNL1        0.1509
@<TRIPOS>BOND
     1     3     2    1
     2     3     4    1
     3     4     5    1
     4     5     1    1
     5     1    15    1
     6    16    15    1
     7    16    17    1
     8    17    18    1
     9    18    19    1
    10    19    22    1
    11    22    23   am
    12    23    24    2
    13    23    25   am
    14    25    26    1
    15    25    27    1
    16    19    20    1
    17    20    21    1
    18     5     6    1
    19     6     7    1
    20     7     8    1
    21     8     9   ar
    22     9    10   ar
    23    10    11   ar
    24    11    12    1
    25    11    13   ar
    26    13    14   ar
    27    14     3    1
    28    21    16    1
    29    14     8   ar
    30    22    28    1
@<TRIPOS>MOLECULE
*****
 28 30 0 0 0
SMALL
GASTEIGER

@<TRIPOS>ATOM
      1 C         144.2406  143.1588  165.3983 C.3     1  UNL1        0.0721
      2 C         140.2542  142.0080  168.2741 C.3     1  UNL1        0.0061
      3 C         140.9826  141.5546  167.0437 C.3     1  UNL1        0.0380
      4 C         142.1873  142.3642  166.6652 C.3     1  UNL1        0.0764
      5 N         143.1169  142.1707  165.5040 N.3     1  UNL1       -0.2721
      6 C         143.0715  141.1199  164.4345 C.3     1  UNL1        0.0768
      7 C         142.0852  140.0030  164.2622 C.3     1  UNL1        0.0433
      8 C         140.9007  139.6611  165.1167 C.ar    1  UNL1       -0.0247
      9 C         140.1729  138.4602  164.5893 C.ar    1  UNL1       -0.0037
     10 C         138.9545  137.9498  165.2998 C.ar    1  UNL1        0.0111
     11 C         138.4638  138.6403  166.5377 C.ar    1  UNL1        0.0573
     12 CL        137.2453  138.1299  167.2482 Cl      1  UNL1       -0.0823
     13 C         139.1916  139.8412  167.0651 C.ar    1  UNL1        0.0069
     14 C         140.4100  140.3516  166.3546 C.ar    1  UNL1       -0.0242
     15 C         144.0951  144.3694  164.5248 C.3     1  UNL1        0.0173
     16 C         143.3049  144.2857  163.2525 C.3     1  UNL1        0.0015
     17 C         143.8725  143.5697  162.0628 C.3     1  UNL1        0.0017
     18 C         143.0824  143.4861  160.7906 C.3     1  UNL1        0.0196
     19 C         141.7246  144.1184  160.7080 C.3     1  UNL1        0.0730
     20 C         141.1571  144.8343  161.8976 C.3     1  UNL1        0.0196
     21 C         141.9473  144.9180  163.1699 C.3     1  UNL1        0.0017
     22 N         140.9345  144.0347  159.4357 N.am    1  UNL1       -0.2904
     23 C         141.2442  144.9621  158.2981 C.2     1  UNL1        0.3040
     24 O         142.3441  145.9730  158.4328 O.2     1  UNL1       -0.2526
     25 N         140.4541  144.8784  157.0258 N.am    1  UNL1       -0.2607
     26 C         140.7638  145.8057  155.8883 C.3     1  UNL1        0.1165
     27 C         139.3541  143.8673  156.8912 C.3     1  UNL1        0.1165
     28 H         140.2126  143.3711  159.3473 H       1  UNL1        0.1509
@<TRIPOS>BOND
     1     3     2    1
     2     3     4    1
     3     4     5    1
     4     5     1    1
     5     1    15    1
     6    16    15    1
     7    16    17    1
     8    17    18    1
     9    18    19    1
    10    19    22    1
    11    22    23   am
    12    23    24    2
    13    23    25   am
    14    25    26    1
    15    25    27    1
    16    19    20    1
    17    20    21    1
    18     5     6    1
    19     6     7    1
    20     7     8    1
    21     8     9   ar
    22     9    10   ar
    23    10    11   ar
    24    11    12    1
    25    11    13   ar
    26    13    14   ar
    27    14     3    1
    28    21    16    1
    29    14     8   ar
    30    22    28    1
@<TRIPOS>MOLECULE
*****
 28 30 0 0 0
SMALL
GASTEIGER

@<TRIPOS>ATOM
      1 C         142.0065  138.0952  164.0506 C.3     1  UNL1        0.0721
      2 C         139.6090  142.2838  165.5318 C.3     1  UNL1        0.0061
      3 C         140.6165  141.2790  166.0066 C.3     1  UNL1        0.0380
      4 C         140.9447  140.1799  165.0402 C.3     1  UNL1        0.0764
      5 N         141.9001  139.0365  165.2136 N.3     1  UNL1       -0.2721
      6 C         142.7631  138.7099  166.3962 C.3     1  UNL1        0.0768
      7 C         142.8838  139.4461  167.6975 C.3     1  UNL1        0.0433
      8 C         142.1715  140.6907  168.1377 C.ar    1  UNL1       -0.0247
      9 C         142.5839  141.0980  169.5211 C.ar    1  UNL1       -0.0037
     10 C         141.9872  142.3210  170.1520 C.ar    1  UNL1        0.0111
     11 C         140.9781  143.1368  169.3995 C.ar    1  UNL1        0.0573
     12 CL        140.3814  144.3599  170.0305 Cl      1  UNL1       -0.0823
     13 C         140.5657  142.7295  168.0161 C.ar    1  UNL1        0.0069
     14 C         141.1624  141.5064  167.3851 C.ar    1  UNL1       -0.0242
     15 C         140.7761  137.4290  163.5099 C.3     1  UNL1        0.0173
     16 C         140.0415  138.0368  162.3519 C.3     1  UNL1        0.0015
     17 C         138.6114  138.4609  162.5103 C.3     1  UNL1        0.0017
     18 C         137.8767  139.0687  161.3523 C.3     1  UNL1        0.0196
     19 C         138.5722  139.2524  160.0360 C.3     1  UNL1        0.0730
     20 C         140.0022  138.8283  159.8777 C.3     1  UNL1        0.0196
     21 C         140.7369  138.2205  161.0357 C.3     1  UNL1        0.0017
     22 N         137.8376  139.8602  158.8780 N.am    1  UNL1       -0.2904
     23 C         138.2453  141.2052  158.3538 C.2     1  UNL1        0.3040
     24 O         139.3876  141.9424  158.9876 O.2     1  UNL1       -0.2526
     25 N         137.5107  141.8130  157.1959 N.am    1  UNL1       -0.2607
     26 C         137.9184  143.1580  156.6716 C.3     1  UNL1        0.1165
     27 C         136.3683  141.0758  156.5621 C.3     1  UNL1        0.1165
     28 H         137.0878  139.3764  158.4621 H       1  UNL1        0.1509
@<TRIPOS>BOND
     1     3     2    1
     2     3     4    1
     3     4     5    1
     4     5     1    1
     5     1    15    1
     6    16    15    1
     7    16    17    1
     8    17    18    1
     9    18    19    1
    10    19    22    1
    11    22    23   am
    12    23    24    2
    13    23    25   am
    14    25    26    1
    15    25    27    1
    16    19    20    1
    17    20    21    1
    18     5     6    1
    19     6     7    1
    20     7     8    1
    21     8     9   ar
    22     9    10   ar
    23    10    11   ar
    24    11    12    1
    25    11    13   ar
    26    13    14   ar
    27    14     3    1
    28    21    16    1
    29    14     8   ar
    30    22    28    1
@<TRIPOS>MOLECULE
*****
 28 30 0 0 0
SMALL
GASTEIGER

@<TRIPOS>ATOM
      1 C         138.8319  137.8098  163.4757 C.3     1  UNL1        0.0721
      2 C         143.2032  139.3432  165.4823 C.3     1  UNL1        0.0061
      3 C         141.7363  139.2664  165.7861 C.3     1  UNL1        0.0380
      4 C         140.8803  138.6614  164.7131 C.3     1  UNL1        0.0764
      5 N         139.3959  138.4453  164.7118 N.3     1  UNL1       -0.2721
      6 C         138.4009  138.7807  165.7830 C.3     1  UNL1        0.0768
      7 C         138.6447  139.4151  167.1202 C.3     1  UNL1        0.0433
      8 C         139.9435  139.8708  167.7165 C.ar    1  UNL1       -0.0247
      9 C         139.7440  140.4543  169.0838 C.ar    1  UNL1       -0.0037
     10 C         140.9204  140.9716  169.8574 C.ar    1  UNL1        0.0111
     11 C         142.2963  140.9054  169.2637 C.ar    1  UNL1        0.0573
     12 CL        143.4727  141.4227  170.0373 Cl      1  UNL1       -0.0823
     13 C         142.4958  140.3219  167.8963 C.ar    1  UNL1        0.0069
     14 C         141.3194  139.8046  167.1228 C.ar    1  UNL1       -0.0242
     15 C         139.6233  137.8156  162.2014 C.3     1  UNL1        0.0173
     16 C         139.2926  138.7986  161.1177 C.3     1  UNL1        0.0015
     17 C         139.7455  138.5439  159.7105 C.3     1  UNL1        0.0017
     18 C         139.4149  139.5269  158.6268 C.3     1  UNL1        0.0196
     19 C         138.6313  140.7645  158.9502 C.3     1  UNL1        0.0730
     20 C         138.1785  141.0190  160.3574 C.3     1  UNL1        0.0196
     21 C         138.5091  140.0361  161.4411 C.3     1  UNL1        0.0017
     22 N         138.3007  141.7474  157.8665 N.am    1  UNL1       -0.2904
     23 C         137.1237  141.5059  156.9684 C.2     1  UNL1        0.3040
     24 O         136.2774  140.2815  157.1541 O.2     1  UNL1       -0.2526
     25 N         136.7931  142.4888  155.8847 N.am    1  UNL1       -0.2607
     26 C         135.6162  142.2474  154.9867 C.3     1  UNL1        0.1165
     27 C         137.6394  143.7133  155.6990 C.3     1  UNL1        0.1165
     28 H         138.8562  142.5511  157.7446 H       1  UNL1        0.1509
@<TRIPOS>BOND
     1     3     2    1
     2     3     4    1
     3     4     5    1
     4     5     1    1
     5     1    15    1
     6    16    15    1
     7    16    17    1
     8    17    18    1
     9    18    19    1
    10    19    22    1
    11    22    23   am
    12    23    24    2
    13    23    25   am
    14    25    26    1
    15    25    27    1
    16    19    20    1
    17    20    21    1
    18     5     6    1
    19     6     7    1
    20     7     8    1
    21     8     9   ar
    22     9    10   ar
    23    10    11   ar
    24    11    12    1
    25    11    13   ar
    26    13    14   ar
    27    14     3    1
    28    21    16    1
    29    14     8   ar
    30    22    28    1
@<TRIPOS>MOLECULE
*****
 28 30 0 0 0
SMALL
GASTEIGER

@<TRIPOS>ATOM
      1 C         139.0567  138.0087  162.7563 C.3     1  UNL1        0.0721
      2 C         143.2944  139.0299  165.3028 C.3     1  UNL1        0.0061
      3 C         141.8017  139.0798  165.4419 C.3     1  UNL1        0.0380
      4 C         141.0210  138.6066  164.2517 C.3     1  UNL1        0.0764
      5 N         139.5328  138.5331  164.0785 N.3     1  UNL1       -0.2721
      6 C         138.4579  138.9145  165.0527 C.3     1  UNL1        0.0768
      7 C         138.6057  139.4638  166.4407 C.3     1  UNL1        0.0433
      8 C         139.8648  139.7672  167.1973 C.ar    1  UNL1       -0.0247
      9 C         139.5660  140.3068  168.5646 C.ar    1  UNL1       -0.0037
     10 C         140.6896  140.6754  169.4874 C.ar    1  UNL1        0.0111
     11 C         142.1120  140.5046  169.0430 C.ar    1  UNL1        0.0573
     12 CL        143.2356  140.8733  169.9658 Cl      1  UNL1       -0.0823
     13 C         142.4108  139.9650  167.6757 C.ar    1  UNL1        0.0069
     14 C         141.2872  139.5964  166.7529 C.ar    1  UNL1       -0.0242
     15 C         137.9424  138.7034  162.0313 C.3     1  UNL1        0.0173
     16 C         138.2288  139.9262  161.2111 C.3     1  UNL1        0.0015
     17 C         138.2065  141.2819  161.8529 C.3     1  UNL1        0.0017
     18 C         138.4930  142.5047  161.0327 C.3     1  UNL1        0.0196
     19 C         138.8016  142.3718  159.5708 C.3     1  UNL1        0.0730
     20 C         138.8238  141.0162  158.9291 C.3     1  UNL1        0.0196
     21 C         138.5374  139.7934  159.7492 C.3     1  UNL1        0.0017
     22 N         139.0880  143.5947  158.7506 N.am    1  UNL1       -0.2904
     23 C         140.5001  144.0727  158.5848 C.2     1  UNL1        0.3040
     24 O         141.6258  143.3280  159.2392 O.2     1  UNL1       -0.2526
     25 N         140.7865  145.2956  157.7646 N.am    1  UNL1       -0.2607
     26 C         142.1986  145.7736  157.5989 C.3     1  UNL1        0.1165
     27 C         139.6608  146.0403  157.1102 C.3     1  UNL1        0.1165
     28 H         138.3492  144.0835  158.3211 H       1  UNL1        0.1509
@<TRIPOS>BOND
     1     3     2    1
     2     3     4    1
     3     4     5    1
     4     5     1    1
     5     1    15    1
     6    16    15    1
     7    16    17    1
     8    17    18    1
     9    18    19    1
    10    19    22    1
    11    22    23   am
    12    23    24    2
    13    23    25   am
    14    25    26    1
    15    25    27    1
    16    19    20    1
    17    20    21    1
    18     5     6    1
    19     6     7    1
    20     7     8    1
    21     8     9   ar
    22     9    10   ar
    23    10    11   ar
    24    11    12    1
    25    11    13   ar
    26    13    14   ar
    27    14     3    1
    28    21    16    1
    29    14     8   ar
    30    22    28    1
@<TRIPOS>MOLECULE
*****
 28 30 0 0 0
SMALL
GASTEIGER

@<TRIPOS>ATOM
      1 C         138.2807  139.6272  161.8397 C.3     1  UNL1        0.0721
      2 C         137.9218  138.1156  166.6431 C.3     1  UNL1        0.0061
      3 C         138.4924  139.2171  165.7998 C.3     1  UNL1        0.0380
      4 C         138.2494  139.0996  164.3243 C.3     1  UNL1        0.0764
      5 N         138.6845  140.0264  163.2281 N.3     1  UNL1       -0.2721
      6 C         139.4701  141.2997  163.3366 C.3     1  UNL1        0.0768
      7 C         140.0145  141.9605  164.5682 C.3     1  UNL1        0.0433
      8 C         139.9079  141.5114  165.9955 C.ar    1  UNL1       -0.0247
      9 C         140.5963  142.4676  166.9238 C.ar    1  UNL1       -0.0037
     10 C         140.6073  142.2028  168.4001 C.ar    1  UNL1        0.0111
     11 C         139.9299  140.9819  168.9482 C.ar    1  UNL1        0.0573
     12 CL        139.9409  140.7172  170.4247 Cl      1  UNL1       -0.0823
     13 C         139.2414  140.0257  168.0200 C.ar    1  UNL1        0.0069
     14 C         139.2304  140.2905  166.5436 C.ar    1  UNL1       -0.0242
     15 C         138.9703  138.4829  161.1578 C.3     1  UNL1        0.0173
     16 C         140.1089  138.7464  160.2175 C.3     1  UNL1        0.0015
     17 C         139.8612  139.4585  158.9207 C.3     1  UNL1        0.0017
     18 C         140.9997  139.7219  157.9803 C.3     1  UNL1        0.0196
     19 C         142.3860  139.2732  158.3367 C.3     1  UNL1        0.0730
     20 C         142.6337  138.5611  159.6334 C.3     1  UNL1        0.0196
     21 C         141.4951  138.2977  160.5738 C.3     1  UNL1        0.0017
     22 N         143.5246  139.5366  157.3963 N.am    1  UNL1       -0.2904
     23 C         144.3759  140.7590  157.5731 C.2     1  UNL1        0.3040
     24 O         144.0886  141.7178  158.6902 O.2     1  UNL1       -0.2526
     25 N         145.5144  141.0224  156.6327 N.am    1  UNL1       -0.2607
     26 C         146.3657  142.2446  156.8095 C.3     1  UNL1        0.1165
     27 C         145.8017  140.0634  155.5156 C.3     1  UNL1        0.1165
     28 H         143.7131  138.9072  156.6631 H       1  UNL1        0.1509
@<TRIPOS>BOND
     1     3     2    1
     2     3     4    1
     3     4     5    1
     4     5     1    1
     5     1    15    1
     6    16    15    1
     7    16    17    1
     8    17    18    1
     9    18    19    1
    10    19    22    1
    11    22    23   am
    12    23    24    2
    13    23    25   am
    14    25    26    1
    15    25    27    1
    16    19    20    1
    17    20    21    1
    18     5     6    1
    19     6     7    1
    20     7     8    1
    21     8     9   ar
    22     9    10   ar
    23    10    11   ar
    24    11    12    1
    25    11    13   ar
    26    13    14   ar
    27    14     3    1
    28    21    16    1
    29    14     8   ar
    30    22    28    1
@<TRIPOS>MOLECULE
*****
 28 30 0 0 0
SMALL
GASTEIGER

@<TRIPOS>ATOM
      1 C         139.0372  137.3672  163.6669 C.3     1  UNL1        0.0721
      2 C         143.3810  138.9170  165.7200 C.3     1  UNL1        0.0061
      3 C         141.8972  138.9758  165.9314 C.3     1  UNL1        0.0380
      4 C         141.0648  138.2694  164.9027 C.3     1  UNL1        0.0764
      5 N         139.5715  138.1461  164.8322 N.3     1  UNL1       -0.2721
      6 C         138.5418  138.6986  165.7727 C.3     1  UNL1        0.0768
      7 C         138.7513  139.5109  167.0162 C.3     1  UNL1        0.0433
      8 C         140.0419  139.9714  167.6263 C.ar    1  UNL1       -0.0247
      9 C         139.8046  140.7650  168.8768 C.ar    1  UNL1       -0.0037
     10 C         140.9674  141.3204  169.6445 C.ar    1  UNL1        0.0111
     11 C         142.3674  141.0823  169.1618 C.ar    1  UNL1        0.0573
     12 CL        143.5302  141.6378  169.9296 Cl      1  UNL1       -0.0823
     13 C         142.6048  140.2887  167.9112 C.ar    1  UNL1        0.0069
     14 C         141.4420  139.7333  167.1435 C.ar    1  UNL1       -0.0242
     15 C         138.4455  138.0872  162.4915 C.3     1  UNL1        0.0173
     16 C         139.3098  138.4466  161.3194 C.3     1  UNL1        0.0015
     17 C         138.7171  139.1626  160.1421 C.3     1  UNL1        0.0017
     18 C         139.5814  139.5221  158.9700 C.3     1  UNL1        0.0196
     19 C         141.0385  139.1655  158.9753 C.3     1  UNL1        0.0730
     20 C         141.6311  138.4496  160.1526 C.3     1  UNL1        0.0196
     21 C         140.7668  138.0901  161.3247 C.3     1  UNL1        0.0017
     22 N         141.9028  139.5250  157.8033 N.am    1  UNL1       -0.2904
     23 C         141.9824  138.6061  156.6203 C.2     1  UNL1        0.3040
     24 O         141.1977  137.3278  156.6094 O.2     1  UNL1       -0.2526
     25 N         142.8467  138.9656  155.4482 N.am    1  UNL1       -0.2607
     26 C         142.9263  138.0467  154.2653 C.3     1  UNL1        0.1165
     27 C         143.6315  140.2439  155.4591 C.3     1  UNL1        0.1165
     28 H         142.4179  140.3640  157.8104 H       1  UNL1        0.1509
@<TRIPOS>BOND
     1     3     2    1
     2     3     4    1
     3     4     5    1
     4     5     1    1
     5     1    15    1
     6    16    15    1
     7    16    17    1
     8    17    18    1
     9    18    19    1
    10    19    22    1
    11    22    23   am
    12    23    24    2
    13    23    25   am
    14    25    26    1
    15    25    27    1
    16    19    20    1
    17    20    21    1
    18     5     6    1
    19     6     7    1
    20     7     8    1
    21     8     9   ar
    22     9    10   ar
    23    10    11   ar
    24    11    12    1
    25    11    13   ar
    26    13    14   ar
    27    14     3    1
    28    21    16    1
    29    14     8   ar
    30    22    28    1
@<TRIPOS>MOLECULE
*****
 28 30 0 0 0
SMALL
GASTEIGER

@<TRIPOS>ATOM
      1 C         139.5642  137.7900  162.4712 C.3     1  UNL1        0.0721
      2 C         137.6455  138.5791  167.0737 C.3     1  UNL1        0.0061
      3 C         138.8198  138.9434  166.2143 C.3     1  UNL1        0.0380
      4 C         138.8264  138.3510  164.8362 C.3     1  UNL1        0.0764
      5 N         139.8470  138.5209  163.7502 N.3     1  UNL1       -0.2721
      6 C         141.1131  139.3250  163.7739 C.3     1  UNL1        0.0768
      7 C         141.6711  140.1579  164.8897 C.3     1  UNL1        0.0433
      8 C         141.1011  140.3923  166.2572 C.ar    1  UNL1       -0.0247
      9 C         141.9805  141.2956  167.0701 C.ar    1  UNL1       -0.0037
     10 C         141.5909  141.6583  168.4724 C.ar    1  UNL1        0.0111
     11 C         140.3219  141.1178  169.0619 C.ar    1  UNL1        0.0573
     12 CL        139.9324  141.4806  170.4643 Cl      1  UNL1       -0.0823
     13 C         139.4425  140.2146  168.2491 C.ar    1  UNL1        0.0069
     14 C         139.8321  139.8518  166.8467 C.ar    1  UNL1       -0.0242
     15 C         138.4485  138.2454  161.5780 C.3     1  UNL1        0.0173
     16 C         138.6346  139.4459  160.6982 C.3     1  UNL1        0.0015
     17 C         139.2081  139.2852  159.3215 C.3     1  UNL1        0.0017
     18 C         139.3942  140.4857  158.4417 C.3     1  UNL1        0.0196
     19 C         139.0067  141.8470  158.9386 C.3     1  UNL1        0.0730
     20 C         138.4331  142.0077  160.3152 C.3     1  UNL1        0.0196
     21 C         138.2471  140.8072  161.1951 C.3     1  UNL1        0.0017
     22 N         139.1927  143.0476  158.0588 N.am    1  UNL1       -0.2904
     23 C         140.4466  143.8647  158.1603 C.2     1  UNL1        0.3040
     24 O         141.5142  143.4814  159.1417 O.2     1  UNL1       -0.2526
     25 N         140.6326  145.0653  157.2805 N.am    1  UNL1       -0.2607
     26 C         141.8863  145.8825  157.3820 C.3     1  UNL1        0.1165
     27 C         139.5649  145.4486  156.2991 C.3     1  UNL1        0.1165
     28 H         138.4920  143.2992  157.4147 H       1  UNL1        0.1509
@<TRIPOS>BOND
     1     3     2    1
     2     3     4    1
     3     4     5    1
     4     5     1    1
     5     1    15    1
     6    16    15    1
     7    16    17    1
     8    17    18    1
     9    18    19    1
    10    19    22    1
    11    22    23   am
    12    23    24    2
    13    23    25   am
    14    25    26    1
    15    25    27    1
    16    19    20    1
    17    20    21    1
    18     5     6    1
    19     6     7    1
    20     7     8    1
    21     8     9   ar
    22     9    10   ar
    23    10    11   ar
    24    11    12    1
    25    11    13   ar
    26    13    14   ar
    27    14     3    1
    28    21    16    1
    29    14     8   ar
    30    22    28    1
