@<TRIPOS>MOLECULE
*****
 26 30 0 0 0
SMALL
GASTEIGER

@<TRIPOS>ATOM
      1 O         138.0113  139.4947  165.7380 O.2     1  UNL1       -0.2520
      2 C         139.3603  138.9617  165.3559 C.2     1  UNL1        0.3111
      3 N         139.6611  138.0897  164.1731 N.am    1  UNL1       -0.2606
      4 C         141.1322  137.7962  164.1757 C.3     1  UNL1        0.1169
      5 C         141.7405  138.4869  165.3602 C.3     1  UNL1        0.1212
      6 N         140.6454  139.2072  166.0896 N.am    1  UNL1       -0.2414
      7 C         140.8071  140.0287  167.3341 C.ar    1  UNL1        0.0555
      8 C         139.6975  140.0902  168.3416 C.ar    1  UNL1        0.0181
      9 C         139.8591  140.9117  169.5862 C.ar    1  UNL1        0.0388
     10 C         141.1304  141.6717  169.8233 C.ar    1  UNL1        0.1455
     11 O         141.5743  142.5592  170.9482 O.2     1  UNL1       -0.4504
     12 C         142.9583  143.0461  170.6360 C.ar    1  UNL1        0.1796
     13 C         143.3698  142.4597  169.3181 C.ar    1  UNL1        0.0437
     14 C         142.2400  141.6102  168.8158 C.ar    1  UNL1        0.0389
     15 C         142.0784  140.7887  167.5712 C.ar    1  UNL1        0.0181
     16 C         138.6657  137.5976  163.1646 C.3     1  UNL1        0.1123
     17 C         138.1903  138.5099  162.0731 C.3     1  UNL1        0.0944
     18 N         138.4541  139.9840  162.1596 N.3     1  UNL1       -0.2637
     19 C         137.5189  141.0159  162.7167 C.3     1  UNL1        0.0992
     20 C         138.1863  142.3547  162.6056 C.ar    1  UNL1       -0.0088
     21 C         137.7409  143.7335  162.9934 C.ar    1  UNL1       -0.0032
     22 C         138.6432  144.9078  162.7555 C.ar    1  UNL1       -0.0003
     23 C         139.9911  144.7032  162.1297 C.ar    1  UNL1       -0.0003
     24 C         140.4365  143.3244  161.7419 C.ar    1  UNL1       -0.0032
     25 C         139.5341  142.1501  161.9798 C.ar    1  UNL1       -0.0088
     26 C         139.6996  140.6850  161.7042 C.3     1  UNL1        0.0992
@<TRIPOS>BOND
     1     1     2    2
     2     2     3   am
     3     3    16    1
     4    16    17    1
     5    17    18    1
     6    18    19    1
     7    19    20    1
     8    20    21   ar
     9    21    22   ar
    10    22    23   ar
    11    23    24   ar
    12    24    25   ar
    13    25    26    1
    14     3     4    1
    15     4     5    1
    16     5     6    1
    17     6     7    1
    18     7     8   ar
    19     8     9   ar
    20     9    10   ar
    21    10    11   ar
    22    11    12   ar
    23    12    13   ar
    24    13    14   ar
    25    14    15   ar
    26     6     2   am
    27    15     7   ar
    28    26    18    1
    29    14    10   ar
    30    25    20   ar
@<TRIPOS>MOLECULE
*****
 26 30 0 0 0
SMALL
GASTEIGER

@<TRIPOS>ATOM
      1 O         139.9363  141.1185  162.7971 O.2     1  UNL1       -0.2520
      2 C         140.4790  139.7210  162.7481 C.2     1  UNL1        0.3111
      3 N         141.1763  139.0863  161.5815 N.am    1  UNL1       -0.2606
      4 C         141.5480  137.6858  161.9695 C.3     1  UNL1        0.1169
      5 C         141.0803  137.4550  163.3760 C.3     1  UNL1        0.1212
      6 N         140.4197  138.7128  163.8572 N.am    1  UNL1       -0.2414
      7 C         139.8073  138.9250  165.2098 C.ar    1  UNL1        0.0555
      8 C         138.4587  138.3468  165.5216 C.ar    1  UNL1        0.0181
      9 C         137.8462  138.5590  166.8743 C.ar    1  UNL1        0.0388
     10 C         138.5823  139.3494  167.9152 C.ar    1  UNL1        0.1455
     11 O         138.2334  139.7213  169.3260 O.2     1  UNL1       -0.4504
     12 C         139.3664  140.5293  169.8861 C.ar    1  UNL1        0.1796
     13 C         140.4155  140.6568  168.8215 C.ar    1  UNL1        0.0437
     14 C         139.9308  139.9276  167.6034 C.ar    1  UNL1        0.0389
     15 C         140.5433  139.7154  166.2507 C.ar    1  UNL1        0.0181
     16 C         141.4533  139.7377  160.2590 C.3     1  UNL1        0.1123
     17 C         142.6229  140.6651  160.1101 C.3     1  UNL1        0.0944
     18 N         143.0113  141.5701  161.2415 N.3     1  UNL1       -0.2637
     19 C         142.6444  143.0181  161.3782 C.3     1  UNL1        0.0992
     20 C         143.2411  143.5289  162.6561 C.ar    1  UNL1       -0.0088
     21 C         143.2097  144.8788  163.3093 C.ar    1  UNL1       -0.0032
     22 C         143.9139  145.0963  164.6157 C.ar    1  UNL1       -0.0003
     23 C         144.6495  143.9640  165.2689 C.ar    1  UNL1       -0.0003
     24 C         144.6810  142.6141  164.6156 C.ar    1  UNL1       -0.0032
     25 C         143.9768  142.3966  163.3092 C.ar    1  UNL1       -0.0088
     26 C         143.8347  141.1860  162.4350 C.3     1  UNL1        0.0992
@<TRIPOS>BOND
     1     1     2    2
     2     2     3   am
     3     3    16    1
     4    16    17    1
     5    17    18    1
     6    18    19    1
     7    19    20    1
     8    20    21   ar
     9    21    22   ar
    10    22    23   ar
    11    23    24   ar
    12    24    25   ar
    13    25    26    1
    14     3     4    1
    15     4     5    1
    16     5     6    1
    17     6     7    1
    18     7     8   ar
    19     8     9   ar
    20     9    10   ar
    21    10    11   ar
    22    11    12   ar
    23    12    13   ar
    24    13    14   ar
    25    14    15   ar
    26     6     2   am
    27    15     7   ar
    28    26    18    1
    29    14    10   ar
    30    25    20   ar
@<TRIPOS>MOLECULE
*****
 26 30 0 0 0
SMALL
GASTEIGER

@<TRIPOS>ATOM
      1 O         144.0080  143.1341  165.4668 O.2     1  UNL1       -0.2520
      2 C         143.9733  141.6842  165.0840 C.2     1  UNL1        0.3111
      3 N         144.5969  141.0800  163.8608 N.am    1  UNL1       -0.2606
      4 C         144.3179  139.6063  163.8781 C.3     1  UNL1        0.1169
      5 C         143.5218  139.2997  165.1119 C.3     1  UNL1        0.1212
      6 N         143.3089  140.5839  165.8572 N.am    1  UNL1       -0.2414
      7 C         142.5626  140.7403  167.1489 C.ar    1  UNL1        0.0555
      8 C         142.5072  139.6030  168.1254 C.ar    1  UNL1        0.0181
      9 C         141.7609  139.7593  169.4172 C.ar    1  UNL1        0.0388
     10 C         141.0699  141.0529  169.7323 C.ar    1  UNL1        0.1455
     11 O         140.2636  141.4976  170.9165 O.2     1  UNL1       -0.4504
     12 C         139.8206  142.9097  170.6717 C.ar    1  UNL1        0.1796
     13 C         140.3532  143.3377  169.3363 C.ar    1  UNL1        0.0437
     14 C         141.1253  142.1901  168.7558 C.ar    1  UNL1        0.0389
     15 C         141.8716  142.0338  167.4640 C.ar    1  UNL1        0.0181
     16 C         145.3647  141.8197  162.8057 C.3     1  UNL1        0.1123
     17 C         144.6327  142.5821  161.7413 C.3     1  UNL1        0.0944
     18 N         143.1906  142.9455  161.9364 N.3     1  UNL1       -0.2637
     19 C         142.6736  144.2550  162.4540 C.3     1  UNL1        0.0992
     20 C         141.1757  144.1821  162.4857 C.ar    1  UNL1       -0.0088
     21 C         140.1311  145.1742  162.9037 C.ar    1  UNL1       -0.0032
     22 C         138.6778  144.8116  162.8237 C.ar    1  UNL1       -0.0003
     23 C         138.2691  143.4571  162.3257 C.ar    1  UNL1       -0.0003
     24 C         139.3136  142.4650  161.9077 C.ar    1  UNL1       -0.0032
     25 C         140.7669  142.8276  161.9877 C.ar    1  UNL1       -0.0088
     26 C         142.0122  142.0633  161.6482 C.3     1  UNL1        0.0992
@<TRIPOS>BOND
     1     1     2    2
     2     2     3   am
     3     3    16    1
     4    16    17    1
     5    17    18    1
     6    18    19    1
     7    19    20    1
     8    20    21   ar
     9    21    22   ar
    10    22    23   ar
    11    23    24   ar
    12    24    25   ar
    13    25    26    1
    14     3     4    1
    15     4     5    1
    16     5     6    1
    17     6     7    1
    18     7     8   ar
    19     8     9   ar
    20     9    10   ar
    21    10    11   ar
    22    11    12   ar
    23    12    13   ar
    24    13    14   ar
    25    14    15   ar
    26     6     2   am
    27    15     7   ar
    28    26    18    1
    29    14    10   ar
    30    25    20   ar
@<TRIPOS>MOLECULE
*****
 26 30 0 0 0
SMALL
GASTEIGER

@<TRIPOS>ATOM
      1 O         140.6315  137.8498  165.0882 O.2     1  UNL1       -0.2520
      2 C         139.6701  138.8547  164.5260 C.2     1  UNL1        0.3111
      3 N         139.1587  138.8929  163.1164 N.am    1  UNL1       -0.2606
      4 C         138.2239  140.0596  162.9939 C.3     1  UNL1        0.1169
      5 C         138.1576  140.7424  164.3279 C.3     1  UNL1        0.1212
      6 N         139.0514  139.9977  165.2747 N.am    1  UNL1       -0.2414
      7 C         139.2853  140.3366  166.7170 C.ar    1  UNL1        0.0555
      8 C         138.6100  139.5398  167.7937 C.ar    1  UNL1        0.0181
      9 C         138.8439  139.8786  169.2361 C.ar    1  UNL1        0.0388
     10 C         139.7530  141.0143  169.6018 C.ar    1  UNL1        0.1455
     11 O         140.1720  141.5777  170.9274 O.2     1  UNL1       -0.4504
     12 C         141.1062  142.7227  170.6700 C.ar    1  UNL1        0.1796
     13 C         141.2647  142.8669  169.1853 C.ar    1  UNL1        0.0437
     14 C         140.4283  141.8110  168.5251 C.ar    1  UNL1        0.0389
     15 C         140.1944  141.4722  167.0828 C.ar    1  UNL1        0.0181
     16 C         139.5189  137.9330  162.0214 C.3     1  UNL1        0.1123
     17 C         140.8321  138.0665  161.3089 C.3     1  UNL1        0.0944
     18 N         141.8865  138.9884  161.8459 N.3     1  UNL1       -0.2637
     19 C         141.9694  140.4670  161.6075 C.3     1  UNL1        0.0992
     20 C         143.1772  140.9860  162.3299 C.ar    1  UNL1       -0.0088
     21 C         143.7585  142.3633  162.4525 C.ar    1  UNL1       -0.0032
     22 C         145.0034  142.5828  163.2600 C.ar    1  UNL1       -0.0003
     23 C         145.6669  141.4249  163.9449 C.ar    1  UNL1       -0.0003
     24 C         145.0856  140.0476  163.8223 C.ar    1  UNL1       -0.0032
     25 C         143.8408  139.8282  163.0148 C.ar    1  UNL1       -0.0088
     26 C         143.0430  138.5936  162.7157 C.3     1  UNL1        0.0992
@<TRIPOS>BOND
     1     1     2    2
     2     2     3   am
     3     3    16    1
     4    16    17    1
     5    17    18    1
     6    18    19    1
     7    19    20    1
     8    20    21   ar
     9    21    22   ar
    10    22    23   ar
    11    23    24   ar
    12    24    25   ar
    13    25    26    1
    14     3     4    1
    15     4     5    1
    16     5     6    1
    17     6     7    1
    18     7     8   ar
    19     8     9   ar
    20     9    10   ar
    21    10    11   ar
    22    11    12   ar
    23    12    13   ar
    24    13    14   ar
    25    14    15   ar
    26     6     2   am
    27    15     7   ar
    28    26    18    1
    29    14    10   ar
    30    25    20   ar
@<TRIPOS>MOLECULE
*****
 26 30 0 0 0
SMALL
GASTEIGER

@<TRIPOS>ATOM
      1 O         137.9300  140.5031  164.5473 O.2     1  UNL1       -0.2520
      2 C         138.8215  139.4088  164.0399 C.2     1  UNL1        0.3111
      3 N         138.6845  138.6978  162.7262 N.am    1  UNL1       -0.2606
      4 C         139.7850  137.6828  162.6315 C.3     1  UNL1        0.1169
      5 C         140.6020  137.7665  163.8867 C.3     1  UNL1        0.1212
      6 N         140.0066  138.8332  164.7571 N.am    1  UNL1       -0.2414
      7 C         140.5082  139.2510  166.1075 C.ar    1  UNL1        0.0555
      8 C         141.9809  139.2551  166.3922 C.ar    1  UNL1        0.0181
      9 C         142.4826  139.6729  167.7427 C.ar    1  UNL1        0.0388
     10 C         141.5116  140.0864  168.8085 C.ar    1  UNL1        0.1455
     11 O         141.7089  140.5442  170.2233 O.2     1  UNL1       -0.4504
     12 C         140.3581  140.8229  170.8130 C.ar    1  UNL1        0.1796
     13 C         139.3259  140.5374  169.7627 C.ar    1  UNL1        0.0437
     14 C         140.0388  140.0822  168.5238 C.ar    1  UNL1        0.0389
     15 C         139.5371  139.6645  167.1734 C.ar    1  UNL1        0.0181
     16 C         137.6319  138.9564  161.6893 C.3     1  UNL1        0.1123
     17 C         137.7689  140.1227  160.7561 C.3     1  UNL1        0.0944
     18 N         138.5702  141.3222  161.1674 N.3     1  UNL1       -0.2637
     19 C         140.0667  141.4247  161.1687 C.3     1  UNL1        0.0992
     20 C         140.4370  142.7957  161.6517 C.ar    1  UNL1       -0.0088
     21 C         141.7647  143.4621  161.8593 C.ar    1  UNL1       -0.0032
     22 C         141.8248  144.8733  162.3641 C.ar    1  UNL1       -0.0003
     23 C         140.5571  145.6181  162.6613 C.ar    1  UNL1       -0.0003
     24 C         139.2295  144.9517  162.4537 C.ar    1  UNL1       -0.0032
     25 C         139.1694  143.5405  161.9490 C.ar    1  UNL1       -0.0088
     26 C         138.0156  142.6299  161.6496 C.3     1  UNL1        0.0992
@<TRIPOS>BOND
     1     1     2    2
     2     2     3   am
     3     3    16    1
     4    16    17    1
     5    17    18    1
     6    18    19    1
     7    19    20    1
     8    20    21   ar
     9    21    22   ar
    10    22    23   ar
    11    23    24   ar
    12    24    25   ar
    13    25    26    1
    14     3     4    1
    15     4     5    1
    16     5     6    1
    17     6     7    1
    18     7     8   ar
    19     8     9   ar
    20     9    10   ar
    21    10    11   ar
    22    11    12   ar
    23    12    13   ar
    24    13    14   ar
    25    14    15   ar
    26     6     2   am
    27    15     7   ar
    28    26    18    1
    29    14    10   ar
    30    25    20   ar
@<TRIPOS>MOLECULE
*****
 26 30 0 0 0
SMALL
GASTEIGER

@<TRIPOS>ATOM
      1 O         137.6114  142.0486  163.0531 O.2     1  UNL1       -0.2520
      2 C         138.4465  140.8933  162.5862 C.2     1  UNL1        0.3111
      3 N         138.7934  140.5749  161.1621 N.am    1  UNL1       -0.2606
      4 C         139.6427  139.3384  161.1572 C.3     1  UNL1        0.1169
      5 C         139.8205  138.8927  162.5784 C.3     1  UNL1        0.1212
      6 N         139.0813  139.8537  163.4616 N.am    1  UNL1       -0.2414
      7 C         138.9925  139.7868  164.9574 C.ar    1  UNL1        0.0555
      8 C         138.0863  138.7858  165.6108 C.ar    1  UNL1        0.0181
      9 C         137.9974  138.7188  167.1067 C.ar    1  UNL1        0.0388
     10 C         138.8147  139.6528  167.9491 C.ar    1  UNL1        0.1455
     11 O         138.9347  139.8196  169.4350 O.2     1  UNL1       -0.4504
     12 C         139.9149  140.9236  169.6999 C.ar    1  UNL1        0.1796
     13 C         140.4009  141.4392  168.3777 C.ar    1  UNL1        0.0437
     14 C         139.7208  140.6538  167.2957 C.ar    1  UNL1        0.0389
     15 C         139.8097  140.7207  165.7998 C.ar    1  UNL1        0.0181
     16 C         138.3662  141.3558  159.9547 C.3     1  UNL1        0.1123
     17 C         139.0086  142.6764  159.6498 C.3     1  UNL1        0.0944
     18 N         140.1062  143.1975  160.5294 N.3     1  UNL1       -0.2637
     19 C         141.5544  142.8142  160.4530 C.3     1  UNL1        0.0992
     20 C         142.2916  143.5731  161.5163 C.ar    1  UNL1       -0.0088
     21 C         143.7384  143.5981  161.9113 C.ar    1  UNL1       -0.0032
     22 C         144.1926  144.4755  163.0399 C.ar    1  UNL1       -0.0003
     23 C         143.2000  145.3279  163.7735 C.ar    1  UNL1       -0.0003
     24 C         141.7532  145.3029  163.3785 C.ar    1  UNL1       -0.0032
     25 C         141.2990  144.4255  162.2499 C.ar    1  UNL1       -0.0088
     26 C         139.9484  144.1933  161.6400 C.3     1  UNL1        0.0992
@<TRIPOS>BOND
     1     1     2    2
     2     2     3   am
     3     3    16    1
     4    16    17    1
     5    17    18    1
     6    18    19    1
     7    19    20    1
     8    20    21   ar
     9    21    22   ar
    10    22    23   ar
    11    23    24   ar
    12    24    25   ar
    13    25    26    1
    14     3     4    1
    15     4     5    1
    16     5     6    1
    17     6     7    1
    18     7     8   ar
    19     8     9   ar
    20     9    10   ar
    21    10    11   ar
    22    11    12   ar
    23    12    13   ar
    24    13    14   ar
    25    14    15   ar
    26     6     2   am
    27    15     7   ar
    28    26    18    1
    29    14    10   ar
    30    25    20   ar
@<TRIPOS>MOLECULE
*****
 26 30 0 0 0
SMALL
GASTEIGER

@<TRIPOS>ATOM
      1 O         142.8477  138.3724  165.6094 O.2     1  UNL1       -0.2520
      2 C         143.0152  139.7483  165.0358 C.2     1  UNL1        0.3111
      3 N         143.7966  140.1012  163.8050 N.am    1  UNL1       -0.2606
      4 C         143.6950  141.5839  163.6008 C.3     1  UNL1        0.1169
      5 C         142.8510  142.1471  164.7055 C.3     1  UNL1        0.1212
      6 N         142.4308  141.0127  165.5924 N.am    1  UNL1       -0.2414
      7 C         141.5763  141.1233  166.8202 C.ar    1  UNL1        0.0555
      8 C         140.6957  139.9790  167.2265 C.ar    1  UNL1        0.0181
      9 C         139.8411  140.0895  168.4544 C.ar    1  UNL1        0.0388
     10 C         139.8672  141.3443  169.2758 C.ar    1  UNL1        0.1455
     11 O         139.1402  141.7405  170.5267 O.2     1  UNL1       -0.4504
     12 C         139.5715  143.1295  170.8934 C.ar    1  UNL1        0.1796
     13 C         140.5652  143.5919  169.8691 C.ar    1  UNL1        0.0437
     14 C         140.7479  142.4886  168.8694 C.ar    1  UNL1        0.0389
     15 C         141.6025  142.3781  167.6416 C.ar    1  UNL1        0.0181
     16 C         144.5476  139.1404  162.9317 C.3     1  UNL1        0.1123
     17 C         143.8052  138.2761  161.9560 C.3     1  UNL1        0.0944
     18 N         142.3378  138.4898  161.7302 N.3     1  UNL1       -0.2637
     19 C         141.2247  137.7261  162.3842 C.3     1  UNL1        0.0992
     20 C         139.9248  138.2690  161.8689 C.ar    1  UNL1       -0.0088
     21 C         138.4991  137.9044  162.1596 C.ar    1  UNL1       -0.0032
     22 C         137.3832  138.6391  161.4778 C.ar    1  UNL1       -0.0003
     23 C         137.6929  139.7383  160.5053 C.ar    1  UNL1       -0.0003
     24 C         139.1185  140.1029  160.2147 C.ar    1  UNL1       -0.0032
     25 C         140.2345  139.3682  160.8965 C.ar    1  UNL1       -0.0088
     26 C         141.7258  139.5047  160.8107 C.3     1  UNL1        0.0992
@<TRIPOS>BOND
     1     1     2    2
     2     2     3   am
     3     3    16    1
     4    16    17    1
     5    17    18    1
     6    18    19    1
     7    19    20    1
     8    20    21   ar
     9    21    22   ar
    10    22    23   ar
    11    23    24   ar
    12    24    25   ar
    13    25    26    1
    14     3     4    1
    15     4     5    1
    16     5     6    1
    17     6     7    1
    18     7     8   ar
    19     8     9   ar
    20     9    10   ar
    21    10    11   ar
    22    11    12   ar
    23    12    13   ar
    24    13    14   ar
    25    14    15   ar
    26     6     2   am
    27    15     7   ar
    28    26    18    1
    29    14    10   ar
    30    25    20   ar
@<TRIPOS>MOLECULE
*****
 26 30 0 0 0
SMALL
GASTEIGER

@<TRIPOS>ATOM
      1 O         139.9750  143.1256  164.7375 O.2     1  UNL1       -0.2520
      2 C         141.3814  143.5593  164.4478 C.2     1  UNL1        0.3111
      3 N         141.7933  144.6200  163.4705 N.am    1  UNL1       -0.2606
      4 C         143.2894  144.7247  163.5032 C.3     1  UNL1        0.1169
      5 C         143.8019  143.7285  164.5008 C.3     1  UNL1        0.1212
      6 N         142.6228  143.0083  165.0845 N.am    1  UNL1       -0.2414
      7 C         142.6757  141.9269  166.1227 C.ar    1  UNL1        0.0555
      8 C         142.6519  140.4860  165.7066 C.ar    1  UNL1        0.0181
      9 C         142.7048  139.4046  166.7447 C.ar    1  UNL1        0.0388
     10 C         142.7816  139.7641  168.1989 C.ar    1  UNL1        0.1455
     11 O         142.8454  138.9225  169.4390 O.2     1  UNL1       -0.4504
     12 C         142.9087  139.8432  170.6214 C.ar    1  UNL1        0.1796
     13 C         142.8840  141.2540  170.1123 C.ar    1  UNL1        0.0437
     14 C         142.8054  141.2051  168.6150 C.ar    1  UNL1        0.0389
     15 C         142.7525  142.2865  167.5769 C.ar    1  UNL1        0.0181
     16 C         140.8712  145.4334  162.6114 C.3     1  UNL1        0.1123
     17 C         140.3164  144.8505  161.3456 C.3     1  UNL1        0.0944
     18 N         139.8984  143.4105  161.3031 N.3     1  UNL1       -0.2637
     19 C         138.5195  142.8844  161.5712 C.3     1  UNL1        0.0992
     20 C         138.5548  141.3926  161.4189 C.ar    1  UNL1       -0.0088
     21 C         137.4925  140.3435  161.5632 C.ar    1  UNL1       -0.0032
     22 C         137.8309  138.8986  161.3454 C.ar    1  UNL1       -0.0003
     23 C         139.2317  138.5026  160.9833 C.ar    1  UNL1       -0.0003
     24 C         140.2940  139.5517  160.8390 C.ar    1  UNL1       -0.0032
     25 C         139.9556  140.9967  161.0568 C.ar    1  UNL1       -0.0088
     26 C         140.7859  142.2438  160.9852 C.3     1  UNL1        0.0992
@<TRIPOS>BOND
     1     1     2    2
     2     2     3   am
     3     3    16    1
     4    16    17    1
     5    17    18    1
     6    18    19    1
     7    19    20    1
     8    20    21   ar
     9    21    22   ar
    10    22    23   ar
    11    23    24   ar
    12    24    25   ar
    13    25    26    1
    14     3     4    1
    15     4     5    1
    16     5     6    1
    17     6     7    1
    18     7     8   ar
    19     8     9   ar
    20     9    10   ar
    21    10    11   ar
    22    11    12   ar
    23    12    13   ar
    24    13    14   ar
    25    14    15   ar
    26     6     2   am
    27    15     7   ar
    28    26    18    1
    29    14    10   ar
    30    25    20   ar
@<TRIPOS>MOLECULE
*****
 26 30 0 0 0
SMALL
GASTEIGER

@<TRIPOS>ATOM
      1 O         138.0818  141.2756  164.9931 O.2     1  UNL1       -0.2520
      2 C         139.0487  140.1477  164.7864 C.2     1  UNL1        0.3111
      3 N         139.2794  139.4083  163.5018 N.am    1  UNL1       -0.2606
      4 C         140.3280  138.3647  163.7495 C.3     1  UNL1        0.1169
      5 C         140.7454  138.4591  165.1872 C.3     1  UNL1        0.1212
      6 N         139.9548  139.5611  165.8280 N.am    1  UNL1       -0.2414
      7 C         140.0530  139.9994  167.2591 C.ar    1  UNL1        0.0555
      8 C         138.9075  139.7591  168.1973 C.ar    1  UNL1        0.0181
      9 C         139.0057  140.1974  169.6285 C.ar    1  UNL1        0.0388
     10 C         140.2493  140.8759  170.1215 C.ar    1  UNL1        0.1455
     11 O         140.6321  141.4150  171.4680 O.2     1  UNL1       -0.4504
     12 C         142.0142  141.9883  171.3619 C.ar    1  UNL1        0.1796
     13 C         142.4855  141.8037  169.9499 C.ar    1  UNL1        0.0437
     14 C         141.3947  141.1162  169.1832 C.ar    1  UNL1        0.0389
     15 C         141.2966  140.6779  167.7521 C.ar    1  UNL1        0.0181
     16 C         138.5836  139.6671  162.1984 C.3     1  UNL1        0.1123
     17 C         139.0969  140.7293  161.2721 C.3     1  UNL1        0.0944
     18 N         140.1564  141.6832  161.7386 N.3     1  UNL1       -0.2637
     19 C         139.9263  142.9436  162.5186 C.3     1  UNL1        0.0992
     20 C         141.2596  143.5836  162.7692 C.ar    1  UNL1       -0.0088
     21 C         141.6500  144.8422  163.4858 C.ar    1  UNL1       -0.0032
     22 C         143.0946  145.2358  163.5772 C.ar    1  UNL1       -0.0003
     23 C         144.1486  144.3709  162.9521 C.ar    1  UNL1       -0.0003
     24 C         143.7582  143.1123  162.2355 C.ar    1  UNL1       -0.0032
     25 C         142.3137  142.7187  162.1440 C.ar    1  UNL1       -0.0088
     26 C         141.6318  141.5442  161.5072 C.3     1  UNL1        0.0992
@<TRIPOS>BOND
     1     1     2    2
     2     2     3   am
     3     3    16    1
     4    16    17    1
     5    17    18    1
     6    18    19    1
     7    19    20    1
     8    20    21   ar
     9    21    22   ar
    10    22    23   ar
    11    23    24   ar
    12    24    25   ar
    13    25    26    1
    14     3     4    1
    15     4     5    1
    16     5     6    1
    17     6     7    1
    18     7     8   ar
    19     8     9   ar
    20     9    10   ar
    21    10    11   ar
    22    11    12   ar
    23    12    13   ar
    24    13    14   ar
    25    14    15   ar
    26     6     2   am
    27    15     7   ar
    28    26    18    1
    29    14    10   ar
    30    25    20   ar
