@<TRIPOS>MOLECULE
*****
 36 41 0 0 0
SMALL
GASTEIGER

@<TRIPOS>ATOM
      1 C         141.0942  140.5743  159.6642 C.ar    1  UNL1       -0.0088
      2 C         140.9823  141.3805  160.9242 C.ar    1  UNL1       -0.0002
      3 C         140.9706  140.6917  162.2567 C.ar    1  UNL1        0.0351
      4 C         141.0709  139.1968  162.3292 C.ar    1  UNL1       -0.0133
      5 C         141.1827  138.3906  161.0692 C.ar    1  UNL1        0.0104
      6 C         141.1944  139.0794  159.7367 C.ar    1  UNL1        0.0435
      7 C         141.0592  138.5081  163.6617 C.3     1  UNL1        0.0545
      8 C         141.0901  137.4065  164.6794 C.3     1  UNL1        0.0103
      9 C         141.1818  137.3194  162.7551 C.3     1  UNL1        0.0103
     10 C         140.9473  139.3142  164.9217 C.2     1  UNL1        0.0648
     11 N         140.9105  138.9168  166.3676 N.2     1  UNL1       -0.2496
     12 C         140.7875  140.1660  167.1887 C.2     1  UNL1        0.0781
     13 C         140.7061  140.3897  168.6697 C.2     1  UNL1        0.0287
     14 C         140.5856  141.7829  169.2122 C.2     1  UNL1        0.0660
     15 C         140.5464  142.9525  168.2738 C.2     1  UNL1       -0.0110
     16 C         140.6278  142.7288  166.7929 C.3     1  UNL1        0.0547
     17 C         140.7483  141.3356  166.2503 C.2     1  UNL1        0.0041
     18 C         140.8471  140.8091  164.8492 C.2     1  UNL1        0.0506
     19 C         140.8588  141.4979  163.5167 C.2     1  UNL1        0.1961
     20 O         140.7586  142.9928  163.4442 O.2     1  UNL1       -0.2866
     21 N         141.3062  138.2732  158.4767 N.pl3   1  UNL1       -0.3077
     22 C         140.0843  137.9981  157.6514 C.3     1  UNL1        0.0922
     23 C         140.1961  137.1920  156.3914 C.3     1  UNL1        0.0374
     24 C         141.5299  136.6609  155.9567 C.3     1  UNL1        0.0611
     25 C         142.7519  136.9360  156.7820 C.3     1  UNL1        0.0374
     26 C         142.6400  137.7422  158.0421 C.3     1  UNL1        0.0922
     27 N         141.6418  135.8548  154.6967 N.3     1  UNL1       -0.2696
     28 C         141.9929  134.3981  154.7670 C.3     1  UNL1        0.1046
     29 C         142.1047  133.5920  153.5070 C.3     1  UNL1        0.1595
     30 O         141.8655  134.2424  152.1767 O.3     1  UNL1       -0.3508
     31 C         141.5144  135.6991  152.1064 C.3     1  UNL1        0.1595
     32 C         141.4026  136.5052  153.3664 C.3     1  UNL1        0.1046
     33 C         142.4096  141.6488  157.6982 C.3     1  UNL1        0.0051
     34 C         141.1058  141.2631  158.3317 C.3     1  UNL1        0.0276
     35 C         140.5041  142.0066  170.6933 C.1     1  UNL1        0.1001
     36 N         140.4228  142.2303  172.1743 N.1     1  UNL1       -0.1908
@<TRIPOS>BOND
     1    33    34    1
     2    34     1    1
     3     1     2   ar
     4     2     3   ar
     5     3     4   ar
     6     4     5   ar
     7     5     6   ar
     8     6    21    1
     9    21    22    1
    10    22    23    1
    11    23    24    1
    12    24    27    1
    13    27    28    1
    14    28    29    1
    15    29    30    1
    16    30    31    1
    17    31    32    1
    18    24    25    1
    19    25    26    1
    20     4     7    1
    21     7     8    1
    22     7     9    1
    23     7    10    1
    24    10    11    2
    25    11    12    1
    26    12    13    2
    27    13    14    1
    28    14    35    1
    29    35    36    3
    30    14    15    2
    31    15    16    1
    32    16    17    1
    33    17    18    2
    34    18    19    1
    35    19    20    2
    36     6     1   ar
    37    26    21    1
    38    18    10    1
    39    19     3    1
    40    32    27    1
    41    17    12    1
@<TRIPOS>MOLECULE
*****
 36 41 0 0 0
SMALL
GASTEIGER

@<TRIPOS>ATOM
      1 C         142.7136  143.2151  159.9331 C.ar    1  UNL1       -0.0088
      2 C         142.0161  143.4351  161.2427 C.ar    1  UNL1       -0.0002
      3 C         142.4087  142.6301  162.4460 C.ar    1  UNL1        0.0351
      4 C         143.4988  141.6052  162.3396 C.ar    1  UNL1       -0.0133
      5 C         144.1963  141.3852  161.0299 C.ar    1  UNL1        0.0104
      6 C         143.8037  142.1902  159.8267 C.ar    1  UNL1        0.0435
      7 C         143.8913  140.8002  163.5428 C.3     1  UNL1        0.0545
      8 C         144.6132  139.7979  164.3940 C.3     1  UNL1        0.0103
      9 C         144.8395  140.2322  162.5288 C.3     1  UNL1        0.0103
     10 C         143.1938  141.0201  164.8525 C.2     1  UNL1        0.0648
     11 N         143.3632  140.3821  166.1995 N.2     1  UNL1       -0.2496
     12 C         142.3779  141.0128  167.1383 C.2     1  UNL1        0.0781
     13 C         142.0889  140.7839  168.5923 C.2     1  UNL1        0.0287
     14 C         141.0215  141.5829  169.2795 C.2     1  UNL1        0.0660
     15 C         140.2431  142.6106  168.5128 C.2     1  UNL1       -0.0110
     16 C         140.5321  142.8394  167.0588 C.3     1  UNL1        0.0547
     17 C         141.5995  142.0405  166.3716 C.2     1  UNL1        0.0041
     18 C         142.1038  142.0450  164.9589 C.2     1  UNL1        0.0506
     19 C         141.7112  142.8500  163.7556 C.2     1  UNL1        0.1961
     20 O         140.6211  143.8750  163.8620 O.2     1  UNL1       -0.2866
     21 N         144.5012  141.9703  158.5170 N.pl3   1  UNL1       -0.3077
     22 C         145.7411  142.7476  158.1878 C.3     1  UNL1        0.0922
     23 C         146.4385  142.5277  156.8783 C.3     1  UNL1        0.0374
     24 C         145.8961  141.5305  155.8978 C.3     1  UNL1        0.0611
     25 C         144.6562  140.7532  156.2270 C.3     1  UNL1        0.0374
     26 C         143.9587  140.9731  157.5366 C.3     1  UNL1        0.0922
     27 N         146.5936  141.3105  154.5881 N.3     1  UNL1       -0.2696
     28 C         147.9993  141.7974  154.3960 C.3     1  UNL1        0.1046
     29 C         148.6968  141.5775  153.0863 C.3     1  UNL1        0.1595
     30 O         147.9886  140.8707  151.9688 O.3     1  UNL1       -0.3508
     31 C         146.5829  140.3838  152.1610 C.3     1  UNL1        0.1595
     32 C         145.8854  140.6037  153.4706 C.3     1  UNL1        0.1046
     33 C         141.4612  145.2387  158.8906 C.3     1  UNL1        0.0051
     34 C         142.3210  144.0202  158.7297 C.3     1  UNL1        0.0276
     35 C         140.7324  141.3541  170.7336 C.1     1  UNL1        0.1001
     36 N         140.4434  141.1253  172.1875 N.1     1  UNL1       -0.1908
@<TRIPOS>BOND
     1    33    34    1
     2    34     1    1
     3     1     2   ar
     4     2     3   ar
     5     3     4   ar
     6     4     5   ar
     7     5     6   ar
     8     6    21    1
     9    21    22    1
    10    22    23    1
    11    23    24    1
    12    24    27    1
    13    27    28    1
    14    28    29    1
    15    29    30    1
    16    30    31    1
    17    31    32    1
    18    24    25    1
    19    25    26    1
    20     4     7    1
    21     7     8    1
    22     7     9    1
    23     7    10    1
    24    10    11    2
    25    11    12    1
    26    12    13    2
    27    13    14    1
    28    14    35    1
    29    35    36    3
    30    14    15    2
    31    15    16    1
    32    16    17    1
    33    17    18    2
    34    18    19    1
    35    19    20    2
    36     6     1   ar
    37    26    21    1
    38    18    10    1
    39    19     3    1
    40    32    27    1
    41    17    12    1
@<TRIPOS>MOLECULE
*****
 36 41 0 0 0
SMALL
GASTEIGER

@<TRIPOS>ATOM
      1 C         142.2141  140.5795  159.7278 C.ar    1  UNL1       -0.0088
      2 C         141.4482  140.4985  161.0150 C.ar    1  UNL1       -0.0002
      3 C         142.0701  140.9870  162.2897 C.ar    1  UNL1        0.0351
      4 C         143.4577  141.5566  162.2770 C.ar    1  UNL1       -0.0133
      5 C         144.2235  141.6375  160.9898 C.ar    1  UNL1        0.0104
      6 C         143.6017  141.1490  159.7151 C.ar    1  UNL1        0.0435
      7 C         144.0795  142.0451  163.5516 C.3     1  UNL1        0.0545
      8 C         145.0890  142.6326  164.4928 C.3     1  UNL1        0.0103
      9 C         145.1959  142.3301  162.5913 C.3     1  UNL1        0.0103
     10 C         143.3137  141.9641  164.8389 C.2     1  UNL1        0.0648
     11 N         143.6634  142.3639  166.2417 N.2     1  UNL1       -0.2496
     12 C         142.4919  142.0414  167.1213 C.2     1  UNL1        0.0781
     13 C         142.2642  142.2159  168.5936 C.2     1  UNL1        0.0287
     14 C         140.9628  141.7913  169.2067 C.2     1  UNL1        0.0660
     15 C         139.8890  141.1923  168.3475 C.2     1  UNL1       -0.0110
     16 C         140.1167  141.0178  166.8752 C.3     1  UNL1        0.0547
     17 C         141.4182  141.4424  166.2621 C.2     1  UNL1        0.0041
     18 C         141.9261  141.3946  164.8515 C.2     1  UNL1        0.0506
     19 C         141.3043  140.9061  163.5769 C.2     1  UNL1        0.1961
     20 O         139.9166  140.3365  163.5895 O.2     1  UNL1       -0.2866
     21 N         144.3675  141.2300  158.4279 N.pl3   1  UNL1       -0.3077
     22 C         145.2013  142.4398  158.1261 C.3     1  UNL1        0.0922
     23 C         145.9670  142.5208  156.8389 C.3     1  UNL1        0.0374
     24 C         145.8991  141.3920  155.8535 C.3     1  UNL1        0.0611
     25 C         145.0653  140.1822  156.1553 C.3     1  UNL1        0.0374
     26 C         144.2995  140.1012  157.4425 C.3     1  UNL1        0.0922
     27 N         146.6649  141.4730  154.5662 N.3     1  UNL1       -0.2696
     28 C         148.0705  141.9966  154.5614 C.3     1  UNL1        0.1046
     29 C         148.8363  142.0776  153.2741 C.3     1  UNL1        0.1595
     30 O         148.1965  141.6349  151.9917 O.3     1  UNL1       -0.3508
     31 C         146.7909  141.1113  151.9965 C.3     1  UNL1        0.1595
     32 C         146.0251  141.0303  153.2837 C.3     1  UNL1        0.1046
     33 C         140.9237  138.7488  158.4111 C.3     1  UNL1        0.0051
     34 C         141.5922  140.0909  158.4531 C.3     1  UNL1        0.0276
     35 C         140.7350  141.9658  170.6791 C.1     1  UNL1        0.1001
     36 N         140.5073  142.1403  172.1513 N.1     1  UNL1       -0.1908
@<TRIPOS>BOND
     1    33    34    1
     2    34     1    1
     3     1     2   ar
     4     2     3   ar
     5     3     4   ar
     6     4     5   ar
     7     5     6   ar
     8     6    21    1
     9    21    22    1
    10    22    23    1
    11    23    24    1
    12    24    27    1
    13    27    28    1
    14    28    29    1
    15    29    30    1
    16    30    31    1
    17    31    32    1
    18    24    25    1
    19    25    26    1
    20     4     7    1
    21     7     8    1
    22     7     9    1
    23     7    10    1
    24    10    11    2
    25    11    12    1
    26    12    13    2
    27    13    14    1
    28    14    35    1
    29    35    36    3
    30    14    15    2
    31    15    16    1
    32    16    17    1
    33    17    18    2
    34    18    19    1
    35    19    20    2
    36     6     1   ar
    37    26    21    1
    38    18    10    1
    39    19     3    1
    40    32    27    1
    41    17    12    1
@<TRIPOS>MOLECULE
*****
 36 41 0 0 0
SMALL
GASTEIGER

@<TRIPOS>ATOM
      1 C         142.1510  142.4044  159.7226 C.ar    1  UNL1       -0.0088
      2 C         142.3090  141.6520  161.0107 C.ar    1  UNL1       -0.0002
      3 C         141.7000  142.1886  162.2722 C.ar    1  UNL1        0.0351
      4 C         140.9330  143.4774  162.2455 C.ar    1  UNL1       -0.0133
      5 C         140.7750  144.2297  160.9574 C.ar    1  UNL1        0.0104
      6 C         141.3841  143.6932  159.6960 C.ar    1  UNL1        0.0435
      7 C         140.3240  144.0139  163.5069 C.3     1  UNL1        0.0545
      8 C         139.5690  144.9211  164.4327 C.3     1  UNL1        0.0103
      9 C         139.9038  145.0813  162.5404 C.3     1  UNL1        0.0103
     10 C         140.4819  143.2616  164.7950 C.2     1  UNL1        0.0648
     11 N         139.9972  143.5414  166.1867 N.2     1  UNL1       -0.2496
     12 C         140.4646  142.4255  167.0734 C.2     1  UNL1        0.0781
     13 C         140.2858  142.1669  168.5401 C.2     1  UNL1        0.0287
     14 C         140.8805  140.9389  169.1631 C.2     1  UNL1        0.0660
     15 C         141.6541  139.9694  168.3194 C.2     1  UNL1       -0.0110
     16 C         141.8329  140.2280  166.8528 C.3     1  UNL1        0.0547
     17 C         141.2382  141.4561  166.2298 C.2     1  UNL1        0.0041
     18 C         141.2489  141.9728  164.8217 C.2     1  UNL1        0.0506
     19 C         141.8579  141.4363  163.5602 C.2     1  UNL1        0.1961
     20 O         142.6249  140.1474  163.5868 O.2     1  UNL1       -0.2866
     21 N         141.2261  144.4455  158.4079 N.pl3   1  UNL1       -0.3077
     22 C         142.2446  145.4720  158.0091 C.3     1  UNL1        0.0922
     23 C         142.0866  146.2242  156.7211 C.3     1  UNL1        0.0374
     24 C         140.9102  145.9500  155.8318 C.3     1  UNL1        0.0611
     25 C         139.8918  144.9235  156.2306 C.3     1  UNL1        0.0374
     26 C         140.0497  144.1712  157.5187 C.3     1  UNL1        0.0922
     27 N         140.7523  146.7023  154.5437 N.3     1  UNL1       -0.2696
     28 C         140.0688  148.0375  154.5339 C.3     1  UNL1        0.1046
     29 C         139.9109  148.7898  153.2459 C.3     1  UNL1        0.1595
     30 O         140.4364  148.2069  151.9676 O.3     1  UNL1       -0.3508
     31 C         141.1199  146.8717  151.9773 C.3     1  UNL1        0.1595
     32 C         141.2778  146.1194  153.2654 C.3     1  UNL1        0.1046
     33 C         144.1412  142.2905  158.0563 C.3     1  UNL1        0.0051
     34 C         142.7601  141.8678  158.4612 C.3     1  UNL1        0.0276
     35 C         140.7017  140.6802  170.6298 C.1     1  UNL1        0.1001
     36 N         140.5228  140.4216  172.0964 N.1     1  UNL1       -0.1908
@<TRIPOS>BOND
     1    33    34    1
     2    34     1    1
     3     1     2   ar
     4     2     3   ar
     5     3     4   ar
     6     4     5   ar
     7     5     6   ar
     8     6    21    1
     9    21    22    1
    10    22    23    1
    11    23    24    1
    12    24    27    1
    13    27    28    1
    14    28    29    1
    15    29    30    1
    16    30    31    1
    17    31    32    1
    18    24    25    1
    19    25    26    1
    20     4     7    1
    21     7     8    1
    22     7     9    1
    23     7    10    1
    24    10    11    2
    25    11    12    1
    26    12    13    2
    27    13    14    1
    28    14    35    1
    29    35    36    3
    30    14    15    2
    31    15    16    1
    32    16    17    1
    33    17    18    2
    34    18    19    1
    35    19    20    2
    36     6     1   ar
    37    26    21    1
    38    18    10    1
    39    19     3    1
    40    32    27    1
    41    17    12    1
@<TRIPOS>MOLECULE
*****
 36 41 0 0 0
SMALL
GASTEIGER

@<TRIPOS>ATOM
      1 C         140.0790  143.5783  163.5965 C.ar    1  UNL1       -0.0088
      2 C         140.2471  142.9897  164.9659 C.ar    1  UNL1       -0.0002
      3 C         141.1563  141.8142  165.1705 C.ar    1  UNL1        0.0351
      4 C         141.8973  141.2275  164.0057 C.ar    1  UNL1       -0.0133
      5 C         141.7291  141.8162  162.6363 C.ar    1  UNL1        0.0104
      6 C         140.8200  142.9915  162.4317 C.ar    1  UNL1        0.0435
      7 C         142.8064  140.0521  164.2103 C.3     1  UNL1        0.0545
      8 C         143.7739  138.9479  163.9022 C.3     1  UNL1        0.0103
      9 C         142.9742  140.2573  162.7340 C.3     1  UNL1        0.0103
     10 C         142.9746  139.4634  165.5797 C.2     1  UNL1        0.0648
     11 N         143.7951  138.3135  166.0841 N.2     1  UNL1       -0.2496
     12 C         143.5613  138.1895  167.5605 C.2     1  UNL1        0.0781
     13 C         144.1024  137.2379  168.5860 C.2     1  UNL1        0.0287
     14 C         143.6785  137.3597  170.0197 C.2     1  UNL1        0.0660
     15 C         142.7135  138.4330  170.4279 C.2     1  UNL1       -0.0110
     16 C         142.1723  139.3846  169.4024 C.3     1  UNL1        0.0547
     17 C         142.5962  139.2628  167.9687 C.2     1  UNL1        0.0041
     18 C         142.2337  140.0501  166.7445 C.2     1  UNL1        0.0506
     19 C         141.3245  141.2255  166.5399 C.2     1  UNL1        0.1961
     20 O         140.5835  141.8123  167.7047 O.2     1  UNL1       -0.2866
     21 N         140.6518  143.5802  161.0623 N.pl3   1  UNL1       -0.3077
     22 C         141.4614  144.7755  160.6552 C.3     1  UNL1        0.0922
     23 C         141.2933  145.3641  159.2859 C.3     1  UNL1        0.0374
     24 C         140.3154  144.7575  158.3236 C.3     1  UNL1        0.0611
     25 C         139.5058  143.5623  158.7308 C.3     1  UNL1        0.0374
     26 C         139.6739  142.9736  160.1002 C.3     1  UNL1        0.0922
     27 N         140.1472  145.3462  156.9543 N.3     1  UNL1       -0.2696
     28 C         139.5803  146.7258  156.7954 C.3     1  UNL1        0.1046
     29 C         139.4121  147.3145  155.4260 C.3     1  UNL1        0.1595
     30 O         139.8108  146.5235  154.2155 O.3     1  UNL1       -0.3508
     31 C         140.3778  145.1439  154.3743 C.3     1  UNL1        0.1595
     32 C         140.5459  144.5553  155.7437 C.3     1  UNL1        0.1046
     33 C         137.7010  144.5375  163.1781 C.3     1  UNL1        0.0051
     34 C         139.1698  144.7537  163.3919 C.3     1  UNL1        0.0276
     35 C         144.2197  136.4081  171.0452 C.1     1  UNL1        0.1001
     36 N         144.7607  135.4566  172.0708 N.1     1  UNL1       -0.1908
@<TRIPOS>BOND
     1    33    34    1
     2    34     1    1
     3     1     2   ar
     4     2     3   ar
     5     3     4   ar
     6     4     5   ar
     7     5     6   ar
     8     6    21    1
     9    21    22    1
    10    22    23    1
    11    23    24    1
    12    24    27    1
    13    27    28    1
    14    28    29    1
    15    29    30    1
    16    30    31    1
    17    31    32    1
    18    24    25    1
    19    25    26    1
    20     4     7    1
    21     7     8    1
    22     7     9    1
    23     7    10    1
    24    10    11    2
    25    11    12    1
    26    12    13    2
    27    13    14    1
    28    14    35    1
    29    35    36    3
    30    14    15    2
    31    15    16    1
    32    16    17    1
    33    17    18    2
    34    18    19    1
    35    19    20    2
    36     6     1   ar
    37    26    21    1
    38    18    10    1
    39    19     3    1
    40    32    27    1
    41    17    12    1
@<TRIPOS>MOLECULE
*****
 36 41 0 0 0
SMALL
GASTEIGER

@<TRIPOS>ATOM
      1 C         143.0835  142.3962  163.2322 C.ar    1  UNL1       -0.0088
      2 C         142.5420  142.2669  164.6251 C.ar    1  UNL1       -0.0002
      3 C         141.4073  141.3263  164.9043 C.ar    1  UNL1        0.0351
      4 C         140.8143  140.5151  163.7906 C.ar    1  UNL1       -0.0133
      5 C         141.3559  140.6444  162.3978 C.ar    1  UNL1        0.0104
      6 C         142.4905  141.5850  162.1186 C.ar    1  UNL1        0.0435
      7 C         139.6797  139.5745  164.0698 C.3     1  UNL1        0.0545
      8 C         138.6033  138.5559  163.8373 C.3     1  UNL1        0.0103
      9 C         139.8474  139.3501  162.5962 C.3     1  UNL1        0.0103
     10 C         139.1381  139.4451  165.4627 C.2     1  UNL1        0.0648
     11 N         138.0345  138.6070  166.0366 N.2     1  UNL1       -0.2496
     12 C         137.9455  138.9001  167.5050 C.2     1  UNL1        0.0781
     13 C         137.0451  138.3706  168.5815 C.2     1  UNL1        0.0287
     14 C         137.1932  138.8604  169.9914 C.2     1  UNL1        0.0660
     15 C         138.2419  139.8798  170.3250 C.2     1  UNL1       -0.0110
     16 C         139.1423  140.4094  169.2485 C.3     1  UNL1        0.0547
     17 C         138.9941  139.9195  167.8386 C.2     1  UNL1        0.0041
     18 C         139.7312  140.2563  166.5763 C.2     1  UNL1        0.0506
     19 C         140.8658  141.1969  166.2971 C.2     1  UNL1        0.1961
     20 O         141.4589  142.0082  167.4108 O.2     1  UNL1       -0.2866
     21 N         143.0320  141.7144  160.7257 N.pl3   1  UNL1       -0.3077
     22 C         143.7355  140.5555  160.0839 C.3     1  UNL1        0.0922
     23 C         144.2771  140.6848  158.6911 C.3     1  UNL1        0.0374
     24 C         144.1151  141.9731  157.9401 C.3     1  UNL1        0.0611
     25 C         143.4116  143.1320  158.5819 C.3     1  UNL1        0.0374
     26 C         142.8700  143.0026  159.9748 C.3     1  UNL1        0.0922
     27 N         144.6566  142.1025  156.5472 N.3     1  UNL1       -0.2696
     28 C         145.9473  141.4326  156.1791 C.3     1  UNL1        0.1046
     29 C         146.4888  141.5620  154.7863 C.3     1  UNL1        0.1595
     30 O         145.7398  142.3612  153.7615 O.3     1  UNL1       -0.3508
     31 C         144.4491  143.0311  154.1297 C.3     1  UNL1        0.1595
     32 C         143.9076  142.9017  155.5225 C.3     1  UNL1        0.1046
     33 C         144.0007  144.8189  163.0326 C.3     1  UNL1        0.0051
     34 C         144.2182  143.3369  162.9530 C.3     1  UNL1        0.0276
     35 C         136.2928  138.3309  171.0680 C.1     1  UNL1        0.1001
     36 N         135.3924  137.8013  172.1444 N.1     1  UNL1       -0.1908
@<TRIPOS>BOND
     1    33    34    1
     2    34     1    1
     3     1     2   ar
     4     2     3   ar
     5     3     4   ar
     6     4     5   ar
     7     5     6   ar
     8     6    21    1
     9    21    22    1
    10    22    23    1
    11    23    24    1
    12    24    27    1
    13    27    28    1
    14    28    29    1
    15    29    30    1
    16    30    31    1
    17    31    32    1
    18    24    25    1
    19    25    26    1
    20     4     7    1
    21     7     8    1
    22     7     9    1
    23     7    10    1
    24    10    11    2
    25    11    12    1
    26    12    13    2
    27    13    14    1
    28    14    35    1
    29    35    36    3
    30    14    15    2
    31    15    16    1
    32    16    17    1
    33    17    18    2
    34    18    19    1
    35    19    20    2
    36     6     1   ar
    37    26    21    1
    38    18    10    1
    39    19     3    1
    40    32    27    1
    41    17    12    1
@<TRIPOS>MOLECULE
*****
 36 41 0 0 0
SMALL
GASTEIGER

@<TRIPOS>ATOM
      1 C         141.5383  139.7697  158.6543 C.ar    1  UNL1       -0.0088
      2 C         140.6995  139.2978  159.8048 C.ar    1  UNL1       -0.0002
      3 C         140.9083  139.8773  161.1725 C.ar    1  UNL1        0.0351
      4 C         141.9559  140.9286  161.3897 C.ar    1  UNL1       -0.0133
      5 C         142.7948  141.4005  160.2392 C.ar    1  UNL1        0.0104
      6 C         142.5860  140.8210  158.8715 C.ar    1  UNL1        0.0435
      7 C         142.1647  141.5081  162.7574 C.3     1  UNL1        0.0545
      8 C         142.7334  142.3533  163.8584 C.3     1  UNL1        0.0103
      9 C         143.2010  142.2735  161.9893 C.3     1  UNL1        0.0103
     10 C         141.3258  141.0362  163.9079 C.2     1  UNL1        0.0648
     11 N         141.3036  141.4201  165.3578 N.2     1  UNL1       -0.2496
     12 C         140.2422  140.6061  166.0367 C.2     1  UNL1        0.0781
     13 C         139.7710  140.5580  167.4599 C.2     1  UNL1        0.0287
     14 C         138.6660  139.6228  167.8528 C.2     1  UNL1        0.0660
     15 C         138.0323  138.7357  166.8225 C.2     1  UNL1       -0.0110
     16 C         138.5035  138.7838  165.3993 C.3     1  UNL1        0.0547
     17 C         139.6085  139.7190  165.0064 C.2     1  UNL1        0.0041
     18 C         140.2782  139.9848  163.6907 C.2     1  UNL1        0.0506
     19 C         140.0694  139.4054  162.3231 C.2     1  UNL1        0.1961
     20 O         139.0218  138.3540  162.1058 O.2     1  UNL1       -0.2866
     21 N         143.4248  141.2929  157.7209 N.pl3   1  UNL1       -0.3077
     22 C         142.9734  142.4588  156.8922 C.3     1  UNL1        0.0922
     23 C         143.8122  142.9307  155.7417 C.3     1  UNL1        0.0374
     24 C         145.1025  142.2367  155.4200 C.3     1  UNL1        0.0611
     25 C         145.5539  141.0708  156.2487 C.3     1  UNL1        0.0374
     26 C         144.7150  140.5989  157.3993 C.3     1  UNL1        0.0922
     27 N         145.9413  142.7085  154.2694 N.3     1  UNL1       -0.2696
     28 C         146.9940  141.8103  153.6907 C.3     1  UNL1        0.1046
     29 C         147.8328  142.2821  152.5401 C.3     1  UNL1        0.1595
     30 O         147.6190  143.6523  151.9684 O.3     1  UNL1       -0.3508
     31 C         146.5664  144.5506  152.5471 C.3     1  UNL1        0.1595
     32 C         145.7275  144.0787  153.6977 C.3     1  UNL1        0.1046
     33 C         141.1749  137.7080  157.1156 C.3     1  UNL1        0.0051
     34 C         141.3295  139.1902  157.2865 C.3     1  UNL1        0.0276
     35 C         138.1947  139.5746  169.2760 C.1     1  UNL1        0.1001
     36 N         137.7234  139.5265  170.6992 N.1     1  UNL1       -0.1908
@<TRIPOS>BOND
     1    33    34    1
     2    34     1    1
     3     1     2   ar
     4     2     3   ar
     5     3     4   ar
     6     4     5   ar
     7     5     6   ar
     8     6    21    1
     9    21    22    1
    10    22    23    1
    11    23    24    1
    12    24    27    1
    13    27    28    1
    14    28    29    1
    15    29    30    1
    16    30    31    1
    17    31    32    1
    18    24    25    1
    19    25    26    1
    20     4     7    1
    21     7     8    1
    22     7     9    1
    23     7    10    1
    24    10    11    2
    25    11    12    1
    26    12    13    2
    27    13    14    1
    28    14    35    1
    29    35    36    3
    30    14    15    2
    31    15    16    1
    32    16    17    1
    33    17    18    2
    34    18    19    1
    35    19    20    2
    36     6     1   ar
    37    26    21    1
    38    18    10    1
    39    19     3    1
    40    32    27    1
    41    17    12    1
@<TRIPOS>MOLECULE
*****
 36 41 0 0 0
SMALL
GASTEIGER

@<TRIPOS>ATOM
      1 C         139.1576  141.3782  153.7368 C.ar    1  UNL1       -0.0088
      2 C         139.3128  139.8863  153.7240 C.ar    1  UNL1       -0.0002
      3 C         140.2781  139.2247  154.6624 C.ar    1  UNL1        0.0351
      4 C         141.0880  140.0549  155.6135 C.ar    1  UNL1       -0.0133
      5 C         140.9328  141.5468  155.6263 C.ar    1  UNL1        0.0104
      6 C         139.9675  142.2085  154.6880 C.ar    1  UNL1        0.0435
      7 C         142.0532  139.3932  156.5519 C.3     1  UNL1        0.0545
      8 C         143.0896  139.2300  157.6240 C.3     1  UNL1        0.0103
      9 C         142.2579  140.8284  156.9370 C.3     1  UNL1        0.0103
     10 C         142.2085  137.9013  156.5391 C.2     1  UNL1        0.0648
     11 N         143.0740  136.9754  157.3412 N.2     1  UNL1       -0.2496
     12 C         142.7990  135.5729  156.8858 C.2     1  UNL1        0.0781
     13 C         143.3577  134.2496  157.3179 C.2     1  UNL1        0.0287
     14 C         142.8809  132.9855  156.6663 C.2     1  UNL1        0.0660
     15 C         141.8454  133.0446  155.5827 C.2     1  UNL1       -0.0110
     16 C         141.2867  134.3679  155.1507 C.3     1  UNL1        0.0547
     17 C         141.7635  135.6320  155.8022 C.2     1  UNL1        0.0041
     18 C         141.3985  137.0711  155.5880 C.2     1  UNL1        0.0506
     19 C         140.4333  137.7328  154.6496 C.2     1  UNL1        0.1961
     20 O         139.6233  136.9025  153.6984 O.2     1  UNL1       -0.2866
     21 N         139.8123  143.7004  154.7007 N.pl3   1  UNL1       -0.3077
     22 C         140.7318  144.5572  153.8820 C.3     1  UNL1        0.0922
     23 C         140.5766  146.0490  153.8948 C.3     1  UNL1        0.0374
     24 C         139.5018  146.6841  154.7263 C.3     1  UNL1        0.0611
     25 C         138.5822  145.8273  155.5450 C.3     1  UNL1        0.0374
     26 C         138.7375  144.3354  155.5322 C.3     1  UNL1        0.0922
     27 N         139.3465  148.1760  154.7391 N.3     1  UNL1       -0.2696
     28 C         138.6141  148.8442  155.8647 C.3     1  UNL1        0.1046
     29 C         138.4588  150.3361  155.8775 C.3     1  UNL1        0.1595
     30 O         139.0360  151.1598  154.7646 O.3     1  UNL1       -0.3508
     31 C         139.7684  150.4916  153.6390 C.3     1  UNL1        0.1595
     32 C         139.9236  148.9997  153.6263 C.3     1  UNL1        0.1046
     33 C         136.7504  142.1857  153.1855 C.3     1  UNL1        0.0051
     34 C         138.1923  142.0399  152.7984 C.3     1  UNL1        0.0276
     35 C         143.4396  131.6621  157.0983 C.1     1  UNL1        0.1001
     36 N         143.9983  130.3387  157.5303 N.1     1  UNL1       -0.1908
@<TRIPOS>BOND
     1    33    34    1
     2    34     1    1
     3     1     2   ar
     4     2     3   ar
     5     3     4   ar
     6     4     5   ar
     7     5     6   ar
     8     6    21    1
     9    21    22    1
    10    22    23    1
    11    23    24    1
    12    24    27    1
    13    27    28    1
    14    28    29    1
    15    29    30    1
    16    30    31    1
    17    31    32    1
    18    24    25    1
    19    25    26    1
    20     4     7    1
    21     7     8    1
    22     7     9    1
    23     7    10    1
    24    10    11    2
    25    11    12    1
    26    12    13    2
    27    13    14    1
    28    14    35    1
    29    35    36    3
    30    14    15    2
    31    15    16    1
    32    16    17    1
    33    17    18    2
    34    18    19    1
    35    19    20    2
    36     6     1   ar
    37    26    21    1
    38    18    10    1
    39    19     3    1
    40    32    27    1
    41    17    12    1
@<TRIPOS>MOLECULE
*****
 36 41 0 0 0
SMALL
GASTEIGER

@<TRIPOS>ATOM
      1 C         142.3994  138.0755  157.6584 C.ar    1  UNL1       -0.0088
      2 C         142.9314  136.6765  157.7573 C.ar    1  UNL1       -0.0002
      3 C         142.8317  135.7513  156.5808 C.ar    1  UNL1        0.0351
      4 C         142.2000  136.2252  155.3055 C.ar    1  UNL1       -0.0133
      5 C         141.6680  137.6242  155.2066 C.ar    1  UNL1        0.0104
      6 C         141.7677  138.5494  156.3831 C.ar    1  UNL1        0.0435
      7 C         142.1003  135.3000  154.1290 C.3     1  UNL1        0.0545
      8 C         141.7768  134.8004  152.7521 C.3     1  UNL1        0.0103
      9 C         141.4560  136.5255  153.5519 C.3     1  UNL1        0.0103
     10 C         142.6323  133.9010  154.2278 C.2     1  UNL1        0.0648
     11 N         142.6745  132.7712  153.2420 N.2     1  UNL1       -0.2496
     12 C         143.3322  131.5991  153.9081 C.2     1  UNL1        0.0781
     13 C         143.6464  130.2151  153.4226 C.2     1  UNL1        0.0287
     14 C         144.3250  129.2365  154.3346 C.2     1  UNL1        0.0660
     15 C         144.6893  129.6419  155.7321 C.2     1  UNL1       -0.0110
     16 C         144.3751  131.0259  156.2175 C.3     1  UNL1        0.0547
     17 C         143.6965  132.0045  155.3055 C.2     1  UNL1        0.0041
     18 C         143.2640  133.4271  155.5031 C.2     1  UNL1        0.0506
     19 C         143.3637  134.3523  156.6796 C.2     1  UNL1        0.1961
     20 O         143.9954  133.8785  157.9550 O.2     1  UNL1       -0.2866
     21 N         141.2357  139.9484  156.2842 N.pl3   1  UNL1       -0.3077
     22 C         142.1215  141.0547  155.7928 C.3     1  UNL1        0.0922
     23 C         141.5896  142.4536  155.6939 C.3     1  UNL1        0.0374
     24 C         140.1718  142.7464  156.0866 C.3     1  UNL1        0.0611
     25 C         139.2860  141.6401  156.5780 C.3     1  UNL1        0.0374
     26 C         139.8180  140.2411  156.6769 C.3     1  UNL1        0.0922
     27 N         139.6398  144.1454  155.9877 N.3     1  UNL1       -0.2696
     28 C         140.2661  145.2446  156.7935 C.3     1  UNL1        0.1046
     29 C         139.7341  146.6437  156.6947 C.3     1  UNL1        0.1595
     30 O         138.5758  146.9435  155.7900 O.3     1  UNL1       -0.3508
     31 C         137.9495  145.8442  154.9842 C.3     1  UNL1        0.1595
     32 C         138.4815  144.4452  155.0831 C.3     1  UNL1        0.1046
     33 C         143.7130  139.8644  159.0091 C.3     1  UNL1        0.0051
     34 C         142.4991  139.0007  158.8349 C.3     1  UNL1        0.0276
     35 C         144.6393  127.8524  153.8492 C.1     1  UNL1        0.1001
     36 N         144.9535  126.4684  153.3638 N.1     1  UNL1       -0.1908
@<TRIPOS>BOND
     1    33    34    1
     2    34     1    1
     3     1     2   ar
     4     2     3   ar
     5     3     4   ar
     6     4     5   ar
     7     5     6   ar
     8     6    21    1
     9    21    22    1
    10    22    23    1
    11    23    24    1
    12    24    27    1
    13    27    28    1
    14    28    29    1
    15    29    30    1
    16    30    31    1
    17    31    32    1
    18    24    25    1
    19    25    26    1
    20     4     7    1
    21     7     8    1
    22     7     9    1
    23     7    10    1
    24    10    11    2
    25    11    12    1
    26    12    13    2
    27    13    14    1
    28    14    35    1
    29    35    36    3
    30    14    15    2
    31    15    16    1
    32    16    17    1
    33    17    18    2
    34    18    19    1
    35    19    20    2
    36     6     1   ar
    37    26    21    1
    38    18    10    1
    39    19     3    1
    40    32    27    1
    41    17    12    1
