@<TRIPOS>MOLECULE
*****
 36 39 0 0 0
SMALL
GASTEIGER

@<TRIPOS>ATOM
      1 C         143.3235  138.7888  161.2840 C.ar    1  UNL1        0.0359
      2 C         144.3766  139.5819  161.9994 C.ar    1  UNL1        0.0043
      3 C         144.4198  139.5907  163.4988 C.ar    1  UNL1        0.0148
      4 C         143.4097  138.8063  164.2827 C.ar    1  UNL1        0.0516
      5 C         142.3566  138.0131  163.5672 C.ar    1  UNL1        0.0148
      6 C         142.3135  138.0044  162.0679 C.ar    1  UNL1        0.0043
      7 C         143.5852  140.0123  157.5177 C.ar    1  UNL1        0.0872
      8 C         143.1941  138.7627  156.7859 C.ar    1  UNL1        0.0508
      9 C         142.8461  137.5218  157.5535 C.ar    1  UNL1        0.1347
     10 N         142.8892  137.5305  159.0528 N.ar    1  UNL1       -0.2119
     11 C         143.2803  138.7801  159.7846 C.ar    1  UNL1        0.1633
     12 N         143.6284  140.0210  159.0170 N.ar    1  UNL1       -0.2290
     13 N         142.4549  136.2722  156.8216 N.pl3   1  UNL1       -0.2880
     14 C         143.1348  134.9733  157.1388 C.3     1  UNL1        0.1242
     15 C         142.7437  133.7238  156.4070 C.3     1  UNL1        0.1636
     16 O         141.6726  133.7731  155.3579 O.3     1  UNL1       -0.3501
     17 C         140.9928  135.0720  155.0407 C.3     1  UNL1        0.1636
     18 C         141.3839  136.3216  155.7726 C.3     1  UNL1        0.1242
     19 C         143.9332  141.2531  156.7502 C.3     1  UNL1        0.1963
     20 C         146.6429  142.5016  157.0656 C.3     1  UNL1        0.1765
     21 S         145.2880  141.8773  156.9079 S.O2    1  UNL1       -0.0025
     22 O         144.7078  142.9019  157.8371 O.2     1  UNL1       -0.1726
     23 O         145.8682  140.8528  155.9786 O.2     1  UNL1       -0.1726
     24 N         143.4529  138.8150  165.7820 N.am    1  UNL1       -0.2681
     25 C         142.5847  139.7656  166.5518 C.2     1  UNL1        0.3082
     26 O         141.6735  140.7076  165.8221 O.2     1  UNL1       -0.2522
     27 N         142.6278  139.7744  168.0512 N.am    1  UNL1       -0.2681
     28 H         144.0509  138.1967  166.2609 H       1  UNL1        0.1564
     29 H         143.2259  139.1561  168.5300 H       1  UNL1        0.1564
     30 C         141.7597  140.7251  168.8209 C.ar    1  UNL1        0.0517
     31 C         140.4010  140.2915  169.2856 C.ar    1  UNL1        0.0170
     32 C         139.5329  141.2422  170.0553 C.ar    1  UNL1        0.0309
     33 C         140.0234  142.6265  170.3603 C.ar    1  UNL1        0.1402
     34 F         139.1553  143.5772  171.1301 F       1  UNL1       -0.2042
     35 C         141.3821  143.0601  169.8956 C.ar    1  UNL1        0.0309
     36 C         142.2502  142.1094  169.1259 C.ar    1  UNL1        0.0170
@<TRIPOS>BOND
     1    20    21    1
     2    21    22    2
     3    21    23    2
     4    21    19    1
     5    19     7    1
     6     7     8   ar
     7     8     9   ar
     8     9    13    1
     9    13    14    1
    10    14    15    1
    11    15    16    1
    12    16    17    1
    13    17    18    1
    14     9    10   ar
    15    10    11   ar
    16    11     1    1
    17     1     2   ar
    18     2     3   ar
    19     3     4   ar
    20     4    24    1
    21    24    25   am
    22    25    26    2
    23    25    27   am
    24    27    30    1
    25    30    31   ar
    26    31    32   ar
    27    32    33   ar
    28    33    34    1
    29    33    35   ar
    30    35    36   ar
    31     4     5   ar
    32     5     6   ar
    33    11    12   ar
    34    12     7   ar
    35    18    13    1
    36     6     1   ar
    37    36    30   ar
    38    24    28    1
    39    27    29    1
@<TRIPOS>MOLECULE
*****
 36 39 0 0 0
SMALL
GASTEIGER

@<TRIPOS>ATOM
      1 C         143.3346  138.7861  161.2778 C.ar    1  UNL1        0.0359
      2 C         142.3212  138.0082  162.0638 C.ar    1  UNL1        0.0043
      3 C         142.3683  138.0154  163.5631 C.ar    1  UNL1        0.0148
      4 C         143.4288  138.8006  164.2764 C.ar    1  UNL1        0.0516
      5 C         144.4422  139.5786  163.4903 C.ar    1  UNL1        0.0148
      6 C         144.3951  139.5713  161.9911 C.ar    1  UNL1        0.0043
      7 C         143.5928  140.0115  157.5119 C.ar    1  UNL1        0.0872
      8 C         143.1935  138.7645  156.7801 C.ar    1  UNL1        0.0508
      9 C         142.8413  137.5247  157.5475 C.ar    1  UNL1        0.1347
     10 N         142.8883  137.5319  159.0467 N.ar    1  UNL1       -0.2119
     11 C         143.2876  138.7789  159.7785 C.ar    1  UNL1        0.1633
     12 N         143.6398  140.0186  159.0112 N.ar    1  UNL1       -0.2290
     13 N         142.4420  136.2777  156.8156 N.pl3   1  UNL1       -0.2880
     14 C         141.3671  136.3330  155.7708 C.3     1  UNL1        0.1242
     15 C         140.9678  135.0861  155.0389 C.3     1  UNL1        0.1636
     16 O         141.6434  133.7838  155.3518 O.3     1  UNL1       -0.3501
     17 C         142.7182  133.7285  156.3966 C.3     1  UNL1        0.1636
     18 C         143.1175  134.9756  157.1285 C.3     1  UNL1        0.1242
     19 C         143.9451  141.2512  156.7446 C.3     1  UNL1        0.1963
     20 C         146.6576  142.4926  157.0631 C.3     1  UNL1        0.1765
     21 S         145.3013  141.8719  156.9039 S.O2    1  UNL1       -0.0025
     22 O         145.8705  140.8764  155.9370 O.2     1  UNL1       -0.1726
     23 O         144.7321  142.8675  157.8707 O.2     1  UNL1       -0.1726
     24 N         143.4758  138.8079  165.7756 N.am    1  UNL1       -0.2681
     25 C         142.5911  139.7399  166.5492 C.2     1  UNL1        0.3082
     26 O         141.6592  140.6646  165.8235 O.2     1  UNL1       -0.2522
     27 N         142.6381  139.7472  168.0485 N.am    1  UNL1       -0.2681
     28 H         144.0875  138.2009  166.2518 H       1  UNL1        0.1564
     29 H         143.2497  139.1402  168.5247 H       1  UNL1        0.1564
     30 C         141.7533  140.6792  168.8221 C.ar    1  UNL1        0.0517
     31 C         140.3931  140.2276  169.2647 C.ar    1  UNL1        0.0170
     32 C         139.5084  141.1595  170.0383 C.ar    1  UNL1        0.0309
     33 C         139.9838  142.5432  170.3693 C.ar    1  UNL1        0.1402
     34 F         139.0990  143.4752  171.1429 F       1  UNL1       -0.2042
     35 C         141.3439  142.9948  169.9267 C.ar    1  UNL1        0.0309
     36 C         142.2287  142.0628  169.1530 C.ar    1  UNL1        0.0170
@<TRIPOS>BOND
     1    20    21    1
     2    21    22    2
     3    21    23    2
     4    21    19    1
     5    19     7    1
     6     7     8   ar
     7     8     9   ar
     8     9    13    1
     9    13    14    1
    10    14    15    1
    11    15    16    1
    12    16    17    1
    13    17    18    1
    14     9    10   ar
    15    10    11   ar
    16    11     1    1
    17     1     2   ar
    18     2     3   ar
    19     3     4   ar
    20     4    24    1
    21    24    25   am
    22    25    26    2
    23    25    27   am
    24    27    30    1
    25    30    31   ar
    26    31    32   ar
    27    32    33   ar
    28    33    34    1
    29    33    35   ar
    30    35    36   ar
    31     4     5   ar
    32     5     6   ar
    33    11    12   ar
    34    12     7   ar
    35    18    13    1
    36     6     1   ar
    37    36    30   ar
    38    24    28    1
    39    27    29    1
@<TRIPOS>MOLECULE
*****
 36 39 0 0 0
SMALL
GASTEIGER

@<TRIPOS>ATOM
      1 C         138.8543  139.3626  161.2151 C.ar    1  UNL1        0.0359
      2 C         138.0807  140.4141  161.9538 C.ar    1  UNL1        0.0043
      3 C         138.0633  140.4175  163.4537 C.ar    1  UNL1        0.0148
      4 C         138.8194  139.3693  164.2149 C.ar    1  UNL1        0.0516
      5 C         139.5930  138.3177  163.4762 C.ar    1  UNL1        0.0148
      6 C         139.6105  138.3143  161.9763 C.ar    1  UNL1        0.0043
      7 C         138.0076  140.2999  157.4529 C.ar    1  UNL1        0.0872
      8 C         138.9067  139.3524  156.7155 C.ar    1  UNL1        0.0508
      9 C         139.7883  138.4083  157.4779 C.ar    1  UNL1        0.1347
     10 N         139.7709  138.4116  158.9778 N.ar    1  UNL1       -0.2119
     11 C         138.8718  139.3591  159.7152 C.ar    1  UNL1        0.1633
     12 N         137.9902  140.3033  158.9527 N.ar    1  UNL1       -0.2290
     13 N         140.6874  137.4607  156.7404 N.pl3   1  UNL1       -0.2880
     14 C         140.1560  136.6720  155.5804 C.3     1  UNL1        0.1242
     15 C         141.0551  135.7245  154.8429 C.3     1  UNL1        0.1636
     16 O         142.4856  135.5657  155.2654 O.3     1  UNL1       -0.3501
     17 C         143.0170  136.3544  156.4254 C.3     1  UNL1        0.1636
     18 C         142.1179  137.3019  157.1629 C.3     1  UNL1        0.1242
     19 C         137.1260  141.2441  156.6904 C.3     1  UNL1        0.1963
     20 C         135.0727  140.1708  154.7845 C.3     1  UNL1        0.1765
     21 S         136.0994  140.7074  155.7375 S.O2    1  UNL1       -0.0025
     22 O         135.2800  140.2193  156.8951 O.2     1  UNL1       -0.1726
     23 O         136.9188  141.1956  154.5798 O.2     1  UNL1       -0.1726
     24 N         138.8020  139.3727  165.7148 N.am    1  UNL1       -0.2681
     25 C         139.7578  140.2444  166.4740 C.2     1  UNL1        0.3082
     26 O         140.7312  141.1127  165.7333 O.2     1  UNL1       -0.2522
     27 N         139.7404  140.2478  167.9739 N.am    1  UNL1       -0.2681
     28 H         138.1631  138.8028  166.2009 H       1  UNL1        0.1564
     29 H         139.1016  139.6779  168.4601 H       1  UNL1        0.1564
     30 C         140.6963  141.1195  168.7331 C.ar    1  UNL1        0.0517
     31 C         142.0697  140.6155  169.0644 C.ar    1  UNL1        0.0170
     32 C         143.0256  141.4872  169.8235 C.ar    1  UNL1        0.0309
     33 C         142.6081  142.8630  170.2515 C.ar    1  UNL1        0.1402
     34 F         143.5640  143.7347  171.0106 F       1  UNL1       -0.2042
     35 C         141.2347  143.3669  169.9202 C.ar    1  UNL1        0.0309
     36 C         140.2788  142.4952  169.1610 C.ar    1  UNL1        0.0170
@<TRIPOS>BOND
     1    20    21    1
     2    21    22    2
     3    21    23    2
     4    21    19    1
     5    19     7    1
     6     7     8   ar
     7     8     9   ar
     8     9    13    1
     9    13    14    1
    10    14    15    1
    11    15    16    1
    12    16    17    1
    13    17    18    1
    14     9    10   ar
    15    10    11   ar
    16    11     1    1
    17     1     2   ar
    18     2     3   ar
    19     3     4   ar
    20     4    24    1
    21    24    25   am
    22    25    26    2
    23    25    27   am
    24    27    30    1
    25    30    31   ar
    26    31    32   ar
    27    32    33   ar
    28    33    34    1
    29    33    35   ar
    30    35    36   ar
    31     4     5   ar
    32     5     6   ar
    33    11    12   ar
    34    12     7   ar
    35    18    13    1
    36     6     1   ar
    37    36    30   ar
    38    24    28    1
    39    27    29    1
@<TRIPOS>MOLECULE
*****
 36 39 0 0 0
SMALL
GASTEIGER

@<TRIPOS>ATOM
      1 C         143.1289  138.8309  161.0141 C.ar    1  UNL1        0.0359
      2 C         144.2059  139.6191  161.6988 C.ar    1  UNL1        0.0043
      3 C         144.3024  139.6142  163.1957 C.ar    1  UNL1        0.0148
      4 C         143.3219  138.8211  164.0079 C.ar    1  UNL1        0.0516
      5 C         142.2448  138.0329  163.3231 C.ar    1  UNL1        0.0148
      6 C         142.1484  138.0378  161.8262 C.ar    1  UNL1        0.0043
      7 C         141.9052  137.9953  157.3324 C.ar    1  UNL1        0.0872
      8 C         142.8394  138.8455  156.5235 C.ar    1  UNL1        0.0508
      9 C         143.8701  139.6908  157.2113 C.ar    1  UNL1        0.1347
     10 N         143.9666  139.6859  158.7082 N.ar    1  UNL1       -0.2119
     11 C         143.0324  138.8358  159.5172 C.ar    1  UNL1        0.1633
     12 N         142.0017  137.9905  158.8293 N.ar    1  UNL1       -0.2290
     13 N         144.8043  140.5409  156.4022 N.pl3   1  UNL1       -0.2880
     14 C         145.6401  141.5879  157.0770 C.3     1  UNL1        0.1242
     15 C         146.5743  142.4380  156.2680 C.3     1  UNL1        0.1636
     16 O         146.6727  142.2413  154.7841 O.3     1  UNL1       -0.3501
     17 C         145.8368  141.1943  154.1094 C.3     1  UNL1        0.1636
     18 C         144.9026  140.3441  154.9185 C.3     1  UNL1        0.1242
     19 C         140.8745  137.1500  156.6446 C.3     1  UNL1        0.1963
     20 C         141.6938  135.2732  154.4522 C.3     1  UNL1        0.1765
     21 S         141.2841  136.2117  155.5484 S.O2    1  UNL1       -0.0025
     22 O         142.1344  135.4480  156.5199 O.2     1  UNL1       -0.1726
     23 O         140.4339  136.9753  154.5770 O.2     1  UNL1       -0.1726
     24 N         143.4183  138.8162  165.5047 N.am    1  UNL1       -0.2681
     25 C         142.5636  139.7456  166.3144 C.2     1  UNL1        0.3082
     26 O         141.6124  140.6800  165.6271 O.2     1  UNL1       -0.2522
     27 N         142.6600  139.7407  167.8113 N.am    1  UNL1       -0.2681
     28 H         144.0426  138.2029  165.9558 H       1  UNL1        0.1564
     29 H         143.2843  139.1275  168.2624 H       1  UNL1        0.1564
     30 C         141.8053  140.6702  168.6209 C.ar    1  UNL1        0.0517
     31 C         142.2772  142.0648  168.9076 C.ar    1  UNL1        0.0170
     32 C         141.4225  142.9943  169.7173 C.ar    1  UNL1        0.0309
     33 C         140.0958  142.5291  170.2403 C.ar    1  UNL1        0.1402
     34 F         139.2411  143.4585  171.0499 F       1  UNL1       -0.2042
     35 C         139.6239  141.1344  169.9536 C.ar    1  UNL1        0.0309
     36 C         140.4786  140.2050  169.1439 C.ar    1  UNL1        0.0170
@<TRIPOS>BOND
     1    20    21    1
     2    21    22    2
     3    21    23    2
     4    21    19    1
     5    19     7    1
     6     7     8   ar
     7     8     9   ar
     8     9    13    1
     9    13    14    1
    10    14    15    1
    11    15    16    1
    12    16    17    1
    13    17    18    1
    14     9    10   ar
    15    10    11   ar
    16    11     1    1
    17     1     2   ar
    18     2     3   ar
    19     3     4   ar
    20     4    24    1
    21    24    25   am
    22    25    26    2
    23    25    27   am
    24    27    30    1
    25    30    31   ar
    26    31    32   ar
    27    32    33   ar
    28    33    34    1
    29    33    35   ar
    30    35    36   ar
    31     4     5   ar
    32     5     6   ar
    33    11    12   ar
    34    12     7   ar
    35    18    13    1
    36     6     1   ar
    37    36    30   ar
    38    24    28    1
    39    27    29    1
@<TRIPOS>MOLECULE
*****
 36 39 0 0 0
SMALL
GASTEIGER

@<TRIPOS>ATOM
      1 C         143.9121  143.1246  161.2542 C.ar    1  UNL1        0.0359
      2 C         144.9132  142.2490  161.9477 C.ar    1  UNL1        0.0043
      3 C         145.0327  142.2847  163.4425 C.ar    1  UNL1        0.0148
      4 C         144.1509  143.1960  164.2438 C.ar    1  UNL1        0.0516
      5 C         143.1497  144.0716  163.5502 C.ar    1  UNL1        0.0148
      6 C         143.0303  144.0359  162.0555 C.ar    1  UNL1        0.0043
      7 C         144.7150  142.3505  157.4455 C.ar    1  UNL1        0.0872
      8 C         143.5538  143.0175  156.7698 C.ar    1  UNL1        0.0508
      9 C         142.5120  143.7202  157.5888 C.ar    1  UNL1        0.1347
     10 N         142.6314  143.7559  159.0836 N.ar    1  UNL1       -0.2119
     11 C         143.7926  143.0889  159.7593 C.ar    1  UNL1        0.1633
     12 N         144.8344  142.3862  158.9403 N.ar    1  UNL1       -0.2290
     13 N         141.3507  144.3872  156.9130 N.pl3   1  UNL1       -0.2880
     14 C         140.3379  143.5628  156.1750 C.3     1  UNL1        0.1242
     15 C         139.1767  144.2297  155.4992 C.3     1  UNL1        0.1636
     16 O         139.0282  145.7210  155.5614 O.3     1  UNL1       -0.3501
     17 C         140.0409  146.5454  156.2994 C.3     1  UNL1        0.1636
     18 C         141.2022  145.8785  156.9752 C.3     1  UNL1        0.1242
     19 C         145.7568  141.6478  156.6264 C.3     1  UNL1        0.1963
     20 C         144.9730  139.3747  154.8323 C.3     1  UNL1        0.1765
     21 S         145.3649  140.5113  155.7294 S.O2    1  UNL1       -0.0025
     22 O         145.8161  141.2985  154.5350 O.2     1  UNL1       -0.1726
     23 O         144.9138  139.7242  156.9239 O.2     1  UNL1       -0.1726
     24 N         144.2704  143.2317  165.7386 N.am    1  UNL1       -0.2681
     25 C         143.3048  142.4584  166.5868 C.2     1  UNL1        0.3082
     26 O         142.2197  141.6493  165.9402 O.2     1  UNL1       -0.2522
     27 N         143.4241  142.4941  168.0816 N.am    1  UNL1       -0.2681
     28 H         144.9825  143.7628  166.1630 H       1  UNL1        0.1564
     29 H         144.1363  143.0251  168.5060 H       1  UNL1        0.1564
     30 C         142.4585  141.7207  168.9298 C.ar    1  UNL1        0.0517
     31 C         142.6746  140.2552  169.1659 C.ar    1  UNL1        0.0170
     32 C         141.7090  139.4819  170.0141 C.ar    1  UNL1        0.0309
     33 C         140.5272  140.1740  170.6262 C.ar    1  UNL1        0.1402
     34 F         139.5616  139.4006  171.4744 F       1  UNL1       -0.2042
     35 C         140.3112  141.6394  170.3901 C.ar    1  UNL1        0.0309
     36 C         141.2769  142.4128  169.5419 C.ar    1  UNL1        0.0170
@<TRIPOS>BOND
     1    20    21    1
     2    21    22    2
     3    21    23    2
     4    21    19    1
     5    19     7    1
     6     7     8   ar
     7     8     9   ar
     8     9    13    1
     9    13    14    1
    10    14    15    1
    11    15    16    1
    12    16    17    1
    13    17    18    1
    14     9    10   ar
    15    10    11   ar
    16    11     1    1
    17     1     2   ar
    18     2     3   ar
    19     3     4   ar
    20     4    24    1
    21    24    25   am
    22    25    26    2
    23    25    27   am
    24    27    30    1
    25    30    31   ar
    26    31    32   ar
    27    32    33   ar
    28    33    34    1
    29    33    35   ar
    30    35    36   ar
    31     4     5   ar
    32     5     6   ar
    33    11    12   ar
    34    12     7   ar
    35    18    13    1
    36     6     1   ar
    37    36    30   ar
    38    24    28    1
    39    27    29    1
@<TRIPOS>MOLECULE
*****
 36 39 0 0 0
SMALL
GASTEIGER

@<TRIPOS>ATOM
      1 C         140.7069  137.8829  156.8661 C.ar    1  UNL1        0.0359
      2 C         140.6563  136.9867  155.6644 C.ar    1  UNL1        0.0043
      3 C         141.7683  136.0132  155.4073 C.ar    1  UNL1        0.0148
      4 C         142.9308  135.9360  156.3521 C.ar    1  UNL1        0.0516
      5 C         142.9813  136.8323  157.5539 C.ar    1  UNL1        0.0148
      6 C         141.8694  137.8057  157.8109 C.ar    1  UNL1        0.0043
      7 C         137.5445  140.2059  156.2722 C.ar    1  UNL1        0.0872
      8 C         137.3710  140.8031  157.6372 C.ar    1  UNL1        0.0508
      9 C         138.3095  140.4269  158.7452 C.ar    1  UNL1        0.1347
     10 N         139.4215  139.4535  158.4882 N.ar    1  UNL1       -0.2119
     11 C         139.5949  138.8563  157.1232 C.ar    1  UNL1        0.1633
     12 N         138.6564  139.2325  156.0152 N.ar    1  UNL1       -0.2290
     13 N         138.1361  141.0241  160.1102 N.pl3   1  UNL1       -0.2880
     14 C         138.4275  142.4782  160.3352 C.3     1  UNL1        0.1242
     15 C         138.2541  143.0755  161.7001 C.3     1  UNL1        0.1636
     16 O         137.7892  142.2186  162.8402 O.3     1  UNL1       -0.3501
     17 C         137.4977  140.7645  162.6153 C.3     1  UNL1        0.1636
     18 C         137.6712  140.1673  161.2502 C.3     1  UNL1        0.1242
     19 C         136.6059  140.5821  155.1642 C.3     1  UNL1        0.1963
     20 C         133.6479  140.6449  155.6603 C.3     1  UNL1        0.1765
     21 S         135.1270  140.6135  155.4122 S.O2    1  UNL1       -0.0025
     22 O         135.1164  139.1190  155.5388 O.2     1  UNL1       -0.1726
     23 O         135.1375  142.1081  155.2857 O.2     1  UNL1       -0.1726
     24 N         144.0427  134.9627  156.0951 N.am    1  UNL1       -0.2681
     25 C         143.8903  133.5262  156.4990 C.2     1  UNL1        0.3082
     26 O         142.6258  133.0631  157.1600 O.2     1  UNL1       -0.2522
     27 N         145.0022  132.5527  156.2421 N.am    1  UNL1       -0.2681
     28 H         144.8726  135.2666  155.6613 H       1  UNL1        0.1564
     29 H         145.8321  132.8566  155.8083 H       1  UNL1        0.1564
     30 C         144.8498  131.1162  156.6460 C.ar    1  UNL1        0.0517
     31 C         144.6714  130.0575  155.5985 C.ar    1  UNL1        0.0170
     32 C         144.5189  128.6210  156.0024 C.ar    1  UNL1        0.0309
     33 C         144.5448  128.2432  157.4539 C.ar    1  UNL1        0.1402
     34 F         144.3924  126.8067  157.8578 F       1  UNL1       -0.2042
     35 C         144.7232  129.3019  158.5014 C.ar    1  UNL1        0.0309
     36 C         144.8757  130.7385  158.0974 C.ar    1  UNL1        0.0170
@<TRIPOS>BOND
     1    20    21    1
     2    21    22    2
     3    21    23    2
     4    21    19    1
     5    19     7    1
     6     7     8   ar
     7     8     9   ar
     8     9    13    1
     9    13    14    1
    10    14    15    1
    11    15    16    1
    12    16    17    1
    13    17    18    1
    14     9    10   ar
    15    10    11   ar
    16    11     1    1
    17     1     2   ar
    18     2     3   ar
    19     3     4   ar
    20     4    24    1
    21    24    25   am
    22    25    26    2
    23    25    27   am
    24    27    30    1
    25    30    31   ar
    26    31    32   ar
    27    32    33   ar
    28    33    34    1
    29    33    35   ar
    30    35    36   ar
    31     4     5   ar
    32     5     6   ar
    33    11    12   ar
    34    12     7   ar
    35    18    13    1
    36     6     1   ar
    37    36    30   ar
    38    24    28    1
    39    27    29    1
@<TRIPOS>MOLECULE
*****
 36 39 0 0 0
SMALL
GASTEIGER

@<TRIPOS>ATOM
      1 C         142.3144  138.2528  160.8420 C.ar    1  UNL1        0.0359
      2 C         141.3116  137.7409  161.8332 C.ar    1  UNL1        0.0043
      3 C         141.5903  137.8442  163.3035 C.ar    1  UNL1        0.0148
      4 C         142.8718  138.4594  163.7826 C.ar    1  UNL1        0.0516
      5 C         143.8745  138.9713  162.7913 C.ar    1  UNL1        0.0148
      6 C         143.5958  138.8680  161.3211 C.ar    1  UNL1        0.0043
      7 C         142.7067  137.3041  157.0085 C.ar    1  UNL1        0.0872
      8 C         141.4785  137.9429  156.4312 C.ar    1  UNL1        0.0508
      9 C         140.5288  138.6850  157.3243 C.ar    1  UNL1        0.1347
     10 N         140.8074  138.7883  158.7945 N.ar    1  UNL1       -0.2119
     11 C         142.0357  138.1495  159.3717 C.ar    1  UNL1        0.1633
     12 N         142.9853  137.4074  158.4787 N.ar    1  UNL1       -0.2290
     13 N         139.3005  139.3238  156.7469 N.pl3   1  UNL1       -0.2880
     14 C         138.8235  138.9322  155.3798 C.3     1  UNL1        0.1242
     15 C         137.5953  139.5710  154.8025 C.3     1  UNL1        0.1636
     16 O         136.8439  140.6014  155.5923 O.3     1  UNL1       -0.3501
     17 C         137.3209  140.9930  156.9595 C.3     1  UNL1        0.1636
     18 C         138.5492  140.3542  157.5368 C.3     1  UNL1        0.1242
     19 C         143.6564  136.5620  156.1155 C.3     1  UNL1        0.1963
     20 C         142.9842  133.7906  155.1841 C.3     1  UNL1        0.1765
     21 S         143.3203  135.1764  155.6498 S.O2    1  UNL1       -0.0025
     22 O         142.8559  135.7306  154.3356 O.2     1  UNL1       -0.1726
     23 O         143.7847  134.6221  156.9640 O.2     1  UNL1       -0.1726
     24 N         143.1505  138.5627  165.2528 N.am    1  UNL1       -0.2681
     25 C         142.3452  139.4983  166.1048 C.2     1  UNL1        0.3082
     26 O         141.2612  140.3307  165.4867 O.2     1  UNL1       -0.2522
     27 N         142.6239  139.6017  167.5752 N.am    1  UNL1       -0.2681
     28 H         143.8619  138.0163  165.6585 H       1  UNL1        0.1564
     29 H         143.3353  139.0554  167.9809 H       1  UNL1        0.1564
     30 C         141.8186  140.5374  168.4272 C.ar    1  UNL1        0.0517
     31 C         140.5016  140.0929  168.9910 C.ar    1  UNL1        0.0170
     32 C         139.6964  141.0285  169.8431 C.ar    1  UNL1        0.0309
     33 C         140.2081  142.4088  170.1313 C.ar    1  UNL1        0.1402
     34 F         139.4029  143.3445  170.9833 F       1  UNL1       -0.2042
     35 C         141.5251  142.8534  169.5674 C.ar    1  UNL1        0.0309
     36 C         142.3304  141.9176  168.7154 C.ar    1  UNL1        0.0170
@<TRIPOS>BOND
     1    20    21    1
     2    21    22    2
     3    21    23    2
     4    21    19    1
     5    19     7    1
     6     7     8   ar
     7     8     9   ar
     8     9    13    1
     9    13    14    1
    10    14    15    1
    11    15    16    1
    12    16    17    1
    13    17    18    1
    14     9    10   ar
    15    10    11   ar
    16    11     1    1
    17     1     2   ar
    18     2     3   ar
    19     3     4   ar
    20     4    24    1
    21    24    25   am
    22    25    26    2
    23    25    27   am
    24    27    30    1
    25    30    31   ar
    26    31    32   ar
    27    32    33   ar
    28    33    34    1
    29    33    35   ar
    30    35    36   ar
    31     4     5   ar
    32     5     6   ar
    33    11    12   ar
    34    12     7   ar
    35    18    13    1
    36     6     1   ar
    37    36    30   ar
    38    24    28    1
    39    27    29    1
@<TRIPOS>MOLECULE
*****
 36 39 0 0 0
SMALL
GASTEIGER

@<TRIPOS>ATOM
      1 C         138.5072  140.6557  159.8223 C.ar    1  UNL1        0.0359
      2 C         137.5705  139.8674  160.6889 C.ar    1  UNL1        0.0043
      3 C         138.0412  139.3319  162.0087 C.ar    1  UNL1        0.0148
      4 C         139.4486  139.5847  162.4618 C.ar    1  UNL1        0.0516
      5 C         140.3853  140.3731  161.5950 C.ar    1  UNL1        0.0148
      6 C         139.9146  140.9085  160.2753 C.ar    1  UNL1        0.0043
      7 C         136.5398  140.9722  156.3902 C.ar    1  UNL1        0.0872
      8 C         137.0951  142.2621  155.8630 C.ar    1  UNL1        0.0508
      9 C         138.1211  143.0165  156.6556 C.ar    1  UNL1        0.1347
     10 N         138.5918  142.4810  157.9754 N.ar    1  UNL1       -0.2119
     11 C         138.0365  141.1912  158.5025 C.ar    1  UNL1        0.1633
     12 N         137.0105  140.4368  157.7099 N.ar    1  UNL1       -0.2290
     13 N         138.6764  144.3064  156.1284 N.pl3   1  UNL1       -0.2880
     14 C         140.0824  144.7093  156.4614 C.3     1  UNL1        0.1242
     15 C         140.6377  145.9992  155.9343 C.3     1  UNL1        0.1636
     16 O         139.7871  146.8861  155.0741 O.3     1  UNL1       -0.3501
     17 C         138.3811  146.4831  154.7411 C.3     1  UNL1        0.1636
     18 C         137.8258  145.1932  155.2683 C.3     1  UNL1        0.1242
     19 C         135.5138  140.2178  155.5976 C.3     1  UNL1        0.1963
     20 C         132.6561  141.1307  155.5892 C.3     1  UNL1        0.1765
     21 S         134.0850  140.6742  155.5934 S.O2    1  UNL1       -0.0025
     22 O         134.2506  141.1798  154.1909 O.2     1  UNL1       -0.1726
     23 O         133.9194  140.1686  156.9958 O.2     1  UNL1       -0.1726
     24 N         139.9193  139.0493  163.7815 N.am    1  UNL1       -0.2681
     25 C         139.8288  139.9020  165.0121 C.2     1  UNL1        0.3082
     26 O         139.2676  141.2902  164.9231 O.2     1  UNL1       -0.2522
     27 N         140.2996  139.3666  166.3319 N.am    1  UNL1       -0.2681
     28 H         140.2877  138.1381  163.8399 H       1  UNL1        0.1564
     29 H         140.6679  138.4554  166.3904 H       1  UNL1        0.1564
     30 C         140.2091  140.2193  167.5626 C.ar    1  UNL1        0.0517
     31 C         139.1890  139.9081  168.6173 C.ar    1  UNL1        0.0170
     32 C         139.0985  140.7609  169.8480 C.ar    1  UNL1        0.0309
     33 C         140.0281  141.9249  170.0240 C.ar    1  UNL1        0.1402
     34 F         139.9377  142.7777  171.2546 F       1  UNL1       -0.2042
     35 C         141.0483  142.2361  168.9692 C.ar    1  UNL1        0.0309
     36 C         141.1387  141.3833  167.7385 C.ar    1  UNL1        0.0170
@<TRIPOS>BOND
     1    20    21    1
     2    21    22    2
     3    21    23    2
     4    21    19    1
     5    19     7    1
     6     7     8   ar
     7     8     9   ar
     8     9    13    1
     9    13    14    1
    10    14    15    1
    11    15    16    1
    12    16    17    1
    13    17    18    1
    14     9    10   ar
    15    10    11   ar
    16    11     1    1
    17     1     2   ar
    18     2     3   ar
    19     3     4   ar
    20     4    24    1
    21    24    25   am
    22    25    26    2
    23    25    27   am
    24    27    30    1
    25    30    31   ar
    26    31    32   ar
    27    32    33   ar
    28    33    34    1
    29    33    35   ar
    30    35    36   ar
    31     4     5   ar
    32     5     6   ar
    33    11    12   ar
    34    12     7   ar
    35    18    13    1
    36     6     1   ar
    37    36    30   ar
    38    24    28    1
    39    27    29    1
@<TRIPOS>MOLECULE
*****
 36 39 0 0 0
SMALL
GASTEIGER

@<TRIPOS>ATOM
      1 C         139.1583  140.5040  160.5353 C.ar    1  UNL1        0.0359
      2 C         138.0810  140.9719  161.4682 C.ar    1  UNL1        0.0043
      3 C         138.1684  140.6581  162.9325 C.ar    1  UNL1        0.0148
      4 C         139.3332  139.8764  163.4637 C.ar    1  UNL1        0.0516
      5 C         140.4105  139.4085  162.5307 C.ar    1  UNL1        0.0148
      6 C         140.3230  139.7223  161.0665 C.ar    1  UNL1        0.0043
      7 C         138.8648  140.0193  156.6073 C.ar    1  UNL1        0.0872
      8 C         138.8960  141.4451  156.1426 C.ar    1  UNL1        0.0508
      9 C         139.0146  142.5573  157.1421 C.ar    1  UNL1        0.1347
     10 N         139.1020  142.2436  158.6063 N.ar    1  UNL1       -0.2119
     11 C         139.0708  140.8177  159.0710 C.ar    1  UNL1        0.1633
     12 N         138.9522  139.7056  158.0715 N.ar    1  UNL1       -0.2290
     13 N         139.0458  143.9832  156.6774 N.pl3   1  UNL1       -0.2880
     14 C         139.9791  144.9628  157.3250 C.3     1  UNL1        0.1242
     15 C         140.0103  146.3886  156.8603 C.3     1  UNL1        0.1636
     16 O         139.1082  146.8349  155.7480 O.3     1  UNL1       -0.3501
     17 C         138.1749  145.8553  155.1004 C.3     1  UNL1        0.1636
     18 C         138.1437  144.4294  155.5652 C.3     1  UNL1        0.1242
     19 C         138.7461  138.9071  155.6078 C.3     1  UNL1        0.1963
     20 C         140.6400  136.5830  155.7178 C.3     1  UNL1        0.1765
     21 S         139.6931  137.7451  155.6628 S.O2    1  UNL1       -0.0025
     22 O         138.5374  136.8136  155.8790 O.2     1  UNL1       -0.1726
     23 O         140.8487  138.6766  155.4465 O.2     1  UNL1       -0.1726
     24 N         139.4207  139.5627  164.9279 N.am    1  UNL1       -0.2681
     25 C         140.1963  140.4633  165.8428 C.2     1  UNL1        0.3082
     26 O         140.8844  141.6778  165.2936 O.2     1  UNL1       -0.2522
     27 N         140.2838  140.1496  167.3071 N.am    1  UNL1       -0.2681
     28 H         138.9690  138.7656  165.2883 H       1  UNL1        0.1564
     29 H         139.8321  139.3525  167.6676 H       1  UNL1        0.1564
     30 C         141.0594  141.0502  168.2220 C.ar    1  UNL1        0.0517
     31 C         142.4721  140.7072  168.5917 C.ar    1  UNL1        0.0170
     32 C         143.2477  141.6079  169.5067 C.ar    1  UNL1        0.0309
     33 C         142.6107  142.8516  170.0520 C.ar    1  UNL1        0.1402
     34 F         143.3863  143.7523  170.9669 F       1  UNL1       -0.2042
     35 C         141.1980  143.1947  169.6823 C.ar    1  UNL1        0.0309
     36 C         140.4224  142.2939  168.7673 C.ar    1  UNL1        0.0170
@<TRIPOS>BOND
     1    20    21    1
     2    21    22    2
     3    21    23    2
     4    21    19    1
     5    19     7    1
     6     7     8   ar
     7     8     9   ar
     8     9    13    1
     9    13    14    1
    10    14    15    1
    11    15    16    1
    12    16    17    1
    13    17    18    1
    14     9    10   ar
    15    10    11   ar
    16    11     1    1
    17     1     2   ar
    18     2     3   ar
    19     3     4   ar
    20     4    24    1
    21    24    25   am
    22    25    26    2
    23    25    27   am
    24    27    30    1
    25    30    31   ar
    26    31    32   ar
    27    32    33   ar
    28    33    34    1
    29    33    35   ar
    30    35    36   ar
    31     4     5   ar
    32     5     6   ar
    33    11    12   ar
    34    12     7   ar
    35    18    13    1
    36     6     1   ar
    37    36    30   ar
    38    24    28    1
    39    27    29    1
