@<TRIPOS>MOLECULE
*****
 52 59 0 0 0
SMALL
GASTEIGER

@<TRIPOS>ATOM
      1 C         140.4799  142.6598  164.2525 C.ar    1  UNL1        0.2216
      2 N         139.4572  143.7066  163.9236 N.ar    1  UNL1       -0.2120
      3 C         138.8679  143.7726  162.5459 C.ar    1  UNL1        0.1048
      4 C         139.3013  142.7918  161.4970 C.ar    1  UNL1        0.0551
      5 C         138.7119  142.8578  160.1192 C.ar    1  UNL1        0.0061
      6 C         139.1452  141.8770  159.0703 C.ar    1  UNL1        0.0179
      7 C         140.1680  140.8301  159.3992 C.ar    1  UNL1        0.0829
      8 N         140.7573  140.7641  160.7770 N.ar    1  UNL1       -0.2264
      9 C         140.3240  141.7449  161.8259 C.ar    1  UNL1        0.1666
     10 N         140.9133  141.6790  163.2036 N.ar    1  UNL1       -0.1945
     11 N         142.2481  142.4617  168.3859 N.3     1  UNL1       -0.2686
     12 C         140.8018  142.8158  168.2051 C.3     1  UNL1        0.0939
     13 C         140.2124  142.8818  166.8272 C.3     1  UNL1        0.1109
     14 N         141.0693  142.5938  165.6303 N.pl3   1  UNL1       -0.2753
     15 C         142.5157  142.2396  165.8112 C.3     1  UNL1        0.1109
     16 C         143.1051  142.1736  167.1889 C.3     1  UNL1        0.0939
     17 C         142.8375  142.3956  169.7636 C.3     1  UNL1        0.0897
     18 C         142.1515  141.6018  170.8356 C.3     1  UNL1        0.0897
     19 C         142.4628  139.1717  169.9710 C.3     1  UNL1        0.0897
     20 N         141.5784  140.2522  170.5189 N.3     1  UNL1       -0.2691
     21 C         140.1209  139.9832  170.7502 C.3     1  UNL1        0.0897
     22 C         138.5559  141.9429  157.6925 C.ar    1  UNL1        0.0015
     23 C         137.3026  141.1820  157.3756 C.ar    1  UNL1        0.0000
     24 C         136.7133  141.2480  155.9978 C.ar    1  UNL1        0.0000
     25 C         137.3772  142.0749  154.9369 C.ar    1  UNL1        0.0000
     26 C         138.6304  142.8358  155.2538 C.ar    1  UNL1        0.0000
     27 C         139.2198  142.7698  156.6316 C.ar    1  UNL1        0.0000
     28 C         140.6014  139.8493  158.3503 C.ar    1  UNL1        0.0177
     29 C         141.8067  140.1384  157.5055 C.ar    1  UNL1        0.0012
     30 C         142.2401  139.1575  156.4566 C.ar    1  UNL1       -0.0029
     31 C         141.4682  137.8876  156.2525 C.ar    1  UNL1       -0.0061
     32 C         140.2629  137.5986  157.0974 C.ar    1  UNL1       -0.0029
     33 C         139.8295  138.5795  158.1463 C.ar    1  UNL1        0.0012
     34 C         141.9015  136.9068  155.2036 C.3     1  UNL1        0.0991
     35 N         142.1432  135.4729  155.5718 N.3     1  UNL1       -0.2689
     36 C         141.3649  134.3835  154.8955 C.3     1  UNL1        0.0728
     37 C         141.6066  132.9495  155.2637 C.3     1  UNL1        0.0249
     38 C         142.6266  132.6051  156.3082 C.3     1  UNL1        0.0613
     39 C         143.4049  133.6946  156.9845 C.3     1  UNL1        0.0249
     40 C         143.1632  135.1284  156.6163 C.3     1  UNL1        0.0728
     41 C         142.8683  131.1713  156.6764 C.ar    1  UNL1        0.1396
     42 N         142.7160  129.9893  155.7655 N.ar    1  UNL1       -0.1335
     43 N         143.0583  128.7551  156.5462 N.ar    1  UNL1       -0.1277
     44 C         143.4222  129.1744  157.9398 C.ar    1  UNL1        0.1807
     45 N         143.3048  130.6676  158.0202 N.ar    1  UNL1       -0.3234
     46 H         143.4829  131.2201  158.8153 H       1  UNL1        0.1686
     47 C         143.8317  128.2607  159.0568 C.ar    1  UNL1        0.1169
     48 C         142.8229  127.3457  159.6853 C.ar    1  UNL1        0.0223
     49 C         143.2324  126.4320  160.8022 C.ar    1  UNL1        0.0032
     50 C         144.6506  126.4335  161.2907 C.ar    1  UNL1        0.0207
     51 C         145.6594  127.3486  160.6621 C.ar    1  UNL1        0.0989
     52 N         145.2499  128.2622  159.5452 N.ar    1  UNL1       -0.2407
@<TRIPOS>BOND
     1    19    20    1
     2    20    21    1
     3    20    18    1
     4    18    17    1
     5    17    11    1
     6    11    12    1
     7    12    13    1
     8    13    14    1
     9    14     1    1
    10     1     2   ar
    11     2     3   ar
    12     3     4   ar
    13     4     5   ar
    14     5     6   ar
    15     6    22    1
    16    22    23   ar
    17    23    24   ar
    18    24    25   ar
    19    25    26   ar
    20    26    27   ar
    21     6     7   ar
    22     7    28    1
    23    28    29   ar
    24    29    30   ar
    25    30    31   ar
    26    31    34    1
    27    34    35    1
    28    35    36    1
    29    36    37    1
    30    37    38    1
    31    38    41    1
    32    41    42   ar
    33    42    43   ar
    34    43    44   ar
    35    44    47    1
    36    47    48   ar
    37    48    49   ar
    38    49    50   ar
    39    50    51   ar
    40    51    52   ar
    41    44    45   ar
    42    38    39    1
    43    39    40    1
    44    31    32   ar
    45    32    33   ar
    46     7     8   ar
    47     8     9   ar
    48     9    10   ar
    49    14    15    1
    50    15    16    1
    51    16    11    1
    52    10     1   ar
    53     9     4   ar
    54    27    22   ar
    55    33    28   ar
    56    40    35    1
    57    45    41   ar
    58    52    47   ar
    59    45    46    1
@<TRIPOS>MOLECULE
*****
 52 59 0 0 0
SMALL
GASTEIGER

@<TRIPOS>ATOM
      1 C         133.2469  140.6001  155.8019 C.ar    1  UNL1        0.2216
      2 N         133.3806  141.3339  154.5005 N.ar    1  UNL1       -0.2120
      3 C         134.7403  141.6884  153.9757 C.ar    1  UNL1        0.1048
      4 C         135.9663  141.3091  154.7523 C.ar    1  UNL1        0.0551
      5 C         137.3261  141.6637  154.2274 C.ar    1  UNL1        0.0061
      6 C         138.5521  141.2844  155.0040 C.ar    1  UNL1        0.0179
      7 C         138.4183  140.5506  156.3055 C.ar    1  UNL1        0.0829
      8 N         137.0586  140.1961  156.8303 N.ar    1  UNL1       -0.2264
      9 C         135.8326  140.5754  156.0537 C.ar    1  UNL1        0.1666
     10 N         134.4729  140.2209  156.5785 N.ar    1  UNL1       -0.1945
     11 N         129.1677  139.5365  157.3764 N.3     1  UNL1       -0.2686
     12 C         129.3056  140.5320  156.2629 C.3     1  UNL1        0.0939
     13 C         130.6654  140.8866  155.7380 C.3     1  UNL1        0.1109
     14 N         131.8871  140.2456  156.3267 N.pl3   1  UNL1       -0.2753
     15 C         131.7491  139.2501  157.4403 C.3     1  UNL1        0.1109
     16 C         130.3895  138.8956  157.9651 C.3     1  UNL1        0.0939
     17 C         127.8080  139.1820  157.9013 C.3     1  UNL1        0.0897
     18 C         127.6766  138.3705  159.1559 C.3     1  UNL1        0.0897
     19 C         127.6376  140.5496  160.5701 C.3     1  UNL1        0.0897
     20 N         127.5184  139.0571  160.4802 N.3     1  UNL1       -0.2691
     21 C         127.2412  138.2511  161.7145 C.3     1  UNL1        0.0897
     22 C         139.9118  141.6389  154.4793 C.ar    1  UNL1        0.0015
     23 C         140.6016  140.7279  153.5074 C.ar    1  UNL1        0.0000
     24 C         141.9613  141.0824  152.9826 C.ar    1  UNL1        0.0000
     25 C         142.6313  142.3478  153.4296 C.ar    1  UNL1        0.0000
     26 C         141.9416  143.2588  154.4014 C.ar    1  UNL1        0.0000
     27 C         140.5818  142.9043  154.9263 C.ar    1  UNL1        0.0000
     28 C         139.6443  140.1714  157.0821 C.ar    1  UNL1        0.0177
     29 C         140.3708  138.8986  156.7622 C.ar    1  UNL1        0.0012
     30 C         141.5968  138.5193  157.5388 C.ar    1  UNL1       -0.0029
     31 C         142.0963  139.4128  158.6353 C.ar    1  UNL1       -0.0061
     32 C         141.3697  140.6855  158.9552 C.ar    1  UNL1       -0.0029
     33 C         140.1437  141.0648  158.1786 C.ar    1  UNL1        0.0012
     34 C         143.3222  139.0336  159.4119 C.3     1  UNL1        0.0991
     35 N         143.2893  139.0318  160.9116 N.3     1  UNL1       -0.2689
     36 C         144.1992  139.9414  161.6828 C.3     1  UNL1        0.0728
     37 C         144.1663  139.9397  163.1825 C.3     1  UNL1        0.0249
     38 C         143.2235  139.0283  163.9109 C.3     1  UNL1        0.0613
     39 C         142.3136  138.1186  163.1396 C.3     1  UNL1        0.0249
     40 C         142.3466  138.1204  161.6400 C.3     1  UNL1        0.0728
     41 C         143.1906  139.0265  165.4105 C.ar    1  UNL1        0.1396
     42 N         143.7846  137.9784  166.3043 N.ar    1  UNL1       -0.1335
     43 N         143.5190  138.3766  167.7258 N.ar    1  UNL1       -0.1277
     44 C         142.7607  139.6708  167.7107 C.ar    1  UNL1        0.1807
     45 N         142.5578  140.0724  166.2798 N.ar    1  UNL1       -0.3234
     46 H         142.0912  140.8806  165.9662 H       1  UNL1        0.1686
     47 C         142.2884  140.4301  168.9150 C.ar    1  UNL1        0.1169
     48 C         142.9307  141.7362  169.2776 C.ar    1  UNL1        0.0223
     49 C         142.4583  142.4955  170.4820 C.ar    1  UNL1        0.0032
     50 C         141.3437  141.9486  171.3237 C.ar    1  UNL1        0.0207
     51 C         140.7014  140.6424  170.9610 C.ar    1  UNL1        0.0989
     52 N         141.1738  139.8832  169.7568 N.ar    1  UNL1       -0.2407
@<TRIPOS>BOND
     1    19    20    1
     2    20    21    1
     3    20    18    1
     4    18    17    1
     5    17    11    1
     6    11    12    1
     7    12    13    1
     8    13    14    1
     9    14     1    1
    10     1     2   ar
    11     2     3   ar
    12     3     4   ar
    13     4     5   ar
    14     5     6   ar
    15     6    22    1
    16    22    23   ar
    17    23    24   ar
    18    24    25   ar
    19    25    26   ar
    20    26    27   ar
    21     6     7   ar
    22     7    28    1
    23    28    29   ar
    24    29    30   ar
    25    30    31   ar
    26    31    34    1
    27    34    35    1
    28    35    36    1
    29    36    37    1
    30    37    38    1
    31    38    41    1
    32    41    42   ar
    33    42    43   ar
    34    43    44   ar
    35    44    47    1
    36    47    48   ar
    37    48    49   ar
    38    49    50   ar
    39    50    51   ar
    40    51    52   ar
    41    44    45   ar
    42    38    39    1
    43    39    40    1
    44    31    32   ar
    45    32    33   ar
    46     7     8   ar
    47     8     9   ar
    48     9    10   ar
    49    14    15    1
    50    15    16    1
    51    16    11    1
    52    10     1   ar
    53     9     4   ar
    54    27    22   ar
    55    33    28   ar
    56    40    35    1
    57    45    41   ar
    58    52    47   ar
    59    45    46    1
@<TRIPOS>MOLECULE
*****
 52 59 0 0 0
SMALL
GASTEIGER

@<TRIPOS>ATOM
      1 C         143.0099  141.9250  163.5960 C.ar    1  UNL1        0.2216
      2 N         144.2739  142.5829  163.1277 N.ar    1  UNL1       -0.2120
      3 C         144.4160  142.9989  161.6936 C.ar    1  UNL1        0.1048
      4 C         143.2940  142.7570  160.7278 C.ar    1  UNL1        0.0551
      5 C         143.4361  143.1730  159.2936 C.ar    1  UNL1        0.0061
      6 C         142.3142  142.9311  158.3279 C.ar    1  UNL1        0.0179
      7 C         141.0501  142.2732  158.7963 C.ar    1  UNL1        0.0829
      8 N         140.9080  141.8572  160.2304 N.ar    1  UNL1       -0.2264
      9 C         142.0300  142.0991  161.1962 C.ar    1  UNL1        0.1666
     10 N         141.8880  141.6831  162.6303 N.ar    1  UNL1       -0.1945
     11 N         142.5836  140.6770  167.8985 N.3     1  UNL1       -0.2686
     12 C         142.3310  139.6857  166.8015 C.3     1  UNL1        0.0939
     13 C         142.4731  140.1017  165.3673 C.3     1  UNL1        0.1109
     14 N         142.8678  141.5090  165.0302 N.pl3   1  UNL1       -0.2753
     15 C         143.1205  142.5003  166.1272 C.3     1  UNL1        0.1109
     16 C         142.9784  142.0843  167.5613 C.3     1  UNL1        0.0939
     17 C         142.4416  140.2610  169.3326 C.3     1  UNL1        0.0897
     18 C         141.1140  139.7913  169.8493 C.3     1  UNL1        0.0897
     19 C         138.5666  140.2920  169.9493 C.3     1  UNL1        0.0897
     20 N         139.9876  140.7672  170.0195 N.3     1  UNL1       -0.2691
     21 C         140.2822  142.2182  170.2599 C.3     1  UNL1        0.0897
     22 C         142.4562  143.3471  156.8937 C.ar    1  UNL1        0.0015
     23 C         142.9317  142.3593  155.8698 C.ar    1  UNL1        0.0000
     24 C         143.0737  142.7753  154.4357 C.ar    1  UNL1        0.0000
     25 C         142.7403  144.1791  154.0254 C.ar    1  UNL1        0.0000
     26 C         142.2649  145.1668  155.0492 C.ar    1  UNL1        0.0000
     27 C         142.1228  144.7508  156.4834 C.ar    1  UNL1        0.0000
     28 C         139.9281  142.0313  157.8305 C.ar    1  UNL1        0.0177
     29 C         139.8298  140.7202  157.1083 C.ar    1  UNL1        0.0012
     30 C         138.7078  140.4783  156.1426 C.ar    1  UNL1       -0.0029
     31 C         137.6842  141.5475  155.8990 C.ar    1  UNL1       -0.0061
     32 C         137.7826  142.8585  156.6212 C.ar    1  UNL1       -0.0029
     33 C         138.9046  143.1004  157.5870 C.ar    1  UNL1        0.0012
     34 C         136.5622  141.3056  154.9333 C.3     1  UNL1        0.0991
     35 N         135.1887  140.9854  155.4443 N.3     1  UNL1       -0.2689
     36 C         135.0238  140.1514  156.6801 C.3     1  UNL1        0.0728
     37 C         133.6503  139.8312  157.1910 C.3     1  UNL1        0.0249
     38 C         132.4418  140.3450  156.4662 C.3     1  UNL1        0.0613
     39 C         132.6067  141.1790  155.2303 C.3     1  UNL1        0.0249
     40 C         133.9802  141.4992  154.7194 C.3     1  UNL1        0.0728
     41 C         131.0683  140.0248  156.9771 C.ar    1  UNL1        0.1396
     42 N         129.7733  140.4450  156.3476 N.ar    1  UNL1       -0.1335
     43 N         128.6533  139.9082  157.1886 N.ar    1  UNL1       -0.1277
     44 C         129.2562  139.1561  158.3380 C.ar    1  UNL1        0.1807
     45 N         130.7488  139.2282  158.2072 N.ar    1  UNL1       -0.3234
     46 H         131.4037  138.8237  158.8210 H       1  UNL1        0.1686
     47 C         128.4994  138.4550  159.4269 C.ar    1  UNL1        0.1169
     48 C         128.2444  136.9798  159.3331 C.ar    1  UNL1        0.0223
     49 C         127.4876  136.2787  160.4220 C.ar    1  UNL1        0.0032
     50 C         126.9858  137.0528  161.6048 C.ar    1  UNL1        0.0207
     51 C         127.2409  138.5281  161.6986 C.ar    1  UNL1        0.0989
     52 N         127.9977  139.2291  160.6097 N.ar    1  UNL1       -0.2407
@<TRIPOS>BOND
     1    19    20    1
     2    20    21    1
     3    20    18    1
     4    18    17    1
     5    17    11    1
     6    11    12    1
     7    12    13    1
     8    13    14    1
     9    14     1    1
    10     1     2   ar
    11     2     3   ar
    12     3     4   ar
    13     4     5   ar
    14     5     6   ar
    15     6    22    1
    16    22    23   ar
    17    23    24   ar
    18    24    25   ar
    19    25    26   ar
    20    26    27   ar
    21     6     7   ar
    22     7    28    1
    23    28    29   ar
    24    29    30   ar
    25    30    31   ar
    26    31    34    1
    27    34    35    1
    28    35    36    1
    29    36    37    1
    30    37    38    1
    31    38    41    1
    32    41    42   ar
    33    42    43   ar
    34    43    44   ar
    35    44    47    1
    36    47    48   ar
    37    48    49   ar
    38    49    50   ar
    39    50    51   ar
    40    51    52   ar
    41    44    45   ar
    42    38    39    1
    43    39    40    1
    44    31    32   ar
    45    32    33   ar
    46     7     8   ar
    47     8     9   ar
    48     9    10   ar
    49    14    15    1
    50    15    16    1
    51    16    11    1
    52    10     1   ar
    53     9     4   ar
    54    27    22   ar
    55    33    28   ar
    56    40    35    1
    57    45    41   ar
    58    52    47   ar
    59    45    46    1
@<TRIPOS>MOLECULE
*****
 52 59 0 0 0
SMALL
GASTEIGER

@<TRIPOS>ATOM
      1 C         140.2464  142.5268  164.4867 C.ar    1  UNL1        0.2216
      2 N         140.0005  143.9621  164.1270 N.ar    1  UNL1       -0.2120
      3 C         140.1168  144.4080  162.6996 C.ar    1  UNL1        0.1048
      4 C         140.4790  143.4186  161.6319 C.ar    1  UNL1        0.0551
      5 C         140.5952  143.8646  160.2044 C.ar    1  UNL1        0.0061
      6 C         140.9574  142.8753  159.1367 C.ar    1  UNL1        0.0179
      7 C         141.2033  141.4399  159.4965 C.ar    1  UNL1        0.0829
      8 N         141.0871  140.9940  160.9239 N.ar    1  UNL1       -0.2264
      9 C         140.7249  141.9833  161.9916 C.ar    1  UNL1        0.1666
     10 N         140.6086  141.5374  163.4190 N.ar    1  UNL1       -0.1945
     11 N         139.8977  141.1888  168.7691 N.3     1  UNL1       -0.2686
     12 C         140.2701  142.6074  168.4545 C.3     1  UNL1        0.0939
     13 C         140.3863  143.0534  167.0271 C.3     1  UNL1        0.1109
     14 N         140.1302  142.0808  165.9142 N.pl3   1  UNL1       -0.2753
     15 C         139.7578  140.6622  166.2288 C.3     1  UNL1        0.1109
     16 C         139.6415  140.2162  167.6562 C.3     1  UNL1        0.0939
     17 C         139.7814  140.7428  170.1965 C.3     1  UNL1        0.0897
     18 C         141.0184  140.4970  171.0085 C.3     1  UNL1        0.0897
     19 C         142.6261  138.7765  169.9107 C.3     1  UNL1        0.0897
     20 N         142.3157  140.1848  170.3232 N.3     1  UNL1       -0.2691
     21 C         143.3026  141.2810  170.0505 C.3     1  UNL1        0.0897
     22 C         141.0737  143.3212  157.7093 C.ar    1  UNL1        0.0015
     23 C         142.3017  144.0491  157.2485 C.ar    1  UNL1        0.0000
     24 C         142.4180  144.4950  155.8211 C.ar    1  UNL1        0.0000
     25 C         141.3062  144.2131  154.8543 C.ar    1  UNL1        0.0000
     26 C         140.0782  143.4852  155.3150 C.ar    1  UNL1        0.0000
     27 C         139.9619  143.0393  156.7425 C.ar    1  UNL1        0.0000
     28 C         141.5655  140.4505  158.4288 C.ar    1  UNL1        0.0177
     29 C         142.9685  140.3970  157.9006 C.ar    1  UNL1        0.0012
     30 C         143.3307  139.4076  156.8329 C.ar    1  UNL1       -0.0029
     31 C         142.2899  138.4718  156.2934 C.ar    1  UNL1       -0.0061
     32 C         140.8870  138.5254  156.8215 C.ar    1  UNL1       -0.0029
     33 C         140.5248  139.5148  157.8892 C.ar    1  UNL1        0.0012
     34 C         142.6520  137.4825  155.2257 C.3     1  UNL1        0.0991
     35 N         142.7157  136.0192  155.5495 N.3     1  UNL1       -0.2689
     36 C         142.1725  135.0121  154.5798 C.3     1  UNL1        0.0728
     37 C         142.2362  133.5488  154.9036 C.3     1  UNL1        0.0249
     38 C         142.8432  133.0927  156.1973 C.3     1  UNL1        0.0613
     39 C         143.3865  134.0999  157.1671 C.3     1  UNL1        0.0249
     40 C         143.3228  135.5631  156.8432 C.3     1  UNL1        0.0728
     41 C         142.9069  131.6295  156.5212 C.ar    1  UNL1        0.1396
     42 N         142.5585  130.5048  155.5918 N.ar    1  UNL1       -0.1335
     43 N         142.7665  129.2142  156.3276 N.ar    1  UNL1       -0.1277
     44 C         143.2434  129.5414  157.7116 C.ar    1  UNL1        0.1807
     45 N         143.3302  131.0341  157.8312 N.ar    1  UNL1       -0.3234
     46 H         143.6149  131.5351  158.6295 H       1  UNL1        0.1686
     47 C         143.5753  128.5500  158.7872 C.ar    1  UNL1        0.1169
     48 C         142.5072  127.6485  159.3318 C.ar    1  UNL1        0.0223
     49 C         142.8391  126.6570  160.4074 C.ar    1  UNL1        0.0032
     50 C         144.2391  126.5670  160.9384 C.ar    1  UNL1        0.0207
     51 C         145.3072  127.4685  160.3937 C.ar    1  UNL1        0.0989
     52 N         144.9753  128.4599  159.3182 N.ar    1  UNL1       -0.2407
@<TRIPOS>BOND
     1    19    20    1
     2    20    21    1
     3    20    18    1
     4    18    17    1
     5    17    11    1
     6    11    12    1
     7    12    13    1
     8    13    14    1
     9    14     1    1
    10     1     2   ar
    11     2     3   ar
    12     3     4   ar
    13     4     5   ar
    14     5     6   ar
    15     6    22    1
    16    22    23   ar
    17    23    24   ar
    18    24    25   ar
    19    25    26   ar
    20    26    27   ar
    21     6     7   ar
    22     7    28    1
    23    28    29   ar
    24    29    30   ar
    25    30    31   ar
    26    31    34    1
    27    34    35    1
    28    35    36    1
    29    36    37    1
    30    37    38    1
    31    38    41    1
    32    41    42   ar
    33    42    43   ar
    34    43    44   ar
    35    44    47    1
    36    47    48   ar
    37    48    49   ar
    38    49    50   ar
    39    50    51   ar
    40    51    52   ar
    41    44    45   ar
    42    38    39    1
    43    39    40    1
    44    31    32   ar
    45    32    33   ar
    46     7     8   ar
    47     8     9   ar
    48     9    10   ar
    49    14    15    1
    50    15    16    1
    51    16    11    1
    52    10     1   ar
    53     9     4   ar
    54    27    22   ar
    55    33    28   ar
    56    40    35    1
    57    45    41   ar
    58    52    47   ar
    59    45    46    1
@<TRIPOS>MOLECULE
*****
 52 59 0 0 0
SMALL
GASTEIGER

@<TRIPOS>ATOM
      1 C         142.9733  130.9369  156.5295 C.ar    1  UNL1        0.2216
      2 N         142.4423  130.6701  155.1523 N.ar    1  UNL1       -0.2120
      3 C         141.9221  131.8021  154.3168 C.ar    1  UNL1        0.1048
      4 C         141.9330  133.2008  154.8586 C.ar    1  UNL1        0.0551
      5 C         141.4128  134.3328  154.0230 C.ar    1  UNL1        0.0061
      6 C         141.4236  135.7315  154.5648 C.ar    1  UNL1        0.0179
      7 C         141.9547  135.9982  155.9421 C.ar    1  UNL1        0.0829
      8 N         142.4749  134.8663  156.7775 N.ar    1  UNL1       -0.2264
      9 C         142.4640  133.4675  156.2358 C.ar    1  UNL1        0.1666
     10 N         142.9842  132.3356  157.0713 N.ar    1  UNL1       -0.1945
     11 N         144.5339  127.5410  159.0361 N.3     1  UNL1       -0.2686
     12 C         145.1520  128.9029  159.1500 C.3     1  UNL1        0.0939
     13 C         144.6318  130.0349  158.3144 C.3     1  UNL1        0.1109
     14 N         143.4935  129.8049  157.3651 N.pl3   1  UNL1       -0.2753
     15 C         142.8754  128.4429  157.2512 C.3     1  UNL1        0.1109
     16 C         143.3955  127.3110  158.0867 C.3     1  UNL1        0.0939
     17 C         145.0540  126.4090  159.8716 C.3     1  UNL1        0.0897
     18 C         144.9507  126.4713  161.3667 C.3     1  UNL1        0.0897
     19 C         147.4118  127.2923  161.5061 C.3     1  UNL1        0.0897
     20 N         146.1127  126.9613  162.1791 N.3     1  UNL1       -0.2691
     21 C         145.9756  127.1202  163.6643 C.3     1  UNL1        0.0897
     22 C         140.9035  136.8634  153.7293 C.ar    1  UNL1        0.0015
     23 C         139.4601  137.2615  153.8207 C.ar    1  UNL1        0.0000
     24 C         138.9399  138.3935  152.9853 C.ar    1  UNL1        0.0000
     25 C         139.8631  139.1274  152.0583 C.ar    1  UNL1        0.0000
     26 C         141.3064  138.7293  151.9668 C.ar    1  UNL1        0.0000
     27 C         141.8266  137.5973  152.8023 C.ar    1  UNL1        0.0000
     28 C         141.9656  137.3969  156.4838 C.ar    1  UNL1        0.0177
     29 C         140.8048  137.8974  157.2915 C.ar    1  UNL1        0.0012
     30 C         140.8157  139.2961  157.8333 C.ar    1  UNL1       -0.0029
     31 C         141.9873  140.1943  157.5673 C.ar    1  UNL1       -0.0061
     32 C         143.1479  139.6938  156.7597 C.ar    1  UNL1       -0.0029
     33 C         143.1371  138.2951  156.2179 C.ar    1  UNL1        0.0012
     34 C         141.9981  141.5930  158.1091 C.3     1  UNL1        0.0991
     35 N         141.7209  141.8363  159.5631 N.3     1  UNL1       -0.2689
     36 C         140.4443  142.5031  159.9819 C.3     1  UNL1        0.0728
     37 C         140.1671  142.7464  161.4359 C.3     1  UNL1        0.0249
     38 C         141.1667  142.3229  162.4710 C.3     1  UNL1        0.0613
     39 C         142.4434  141.6561  162.0522 C.3     1  UNL1        0.0249
     40 C         142.7205  141.4128  160.5982 C.3     1  UNL1        0.0728
     41 C         140.8895  142.5661  163.9250 C.ar    1  UNL1        0.1396
     42 N         139.7941  143.4263  164.4819 N.ar    1  UNL1       -0.1335
     43 N         139.8867  143.3837  165.9784 N.ar    1  UNL1       -0.1277
     44 C         141.0395  142.4972  166.3464 C.ar    1  UNL1        0.1807
     45 N         141.6592  141.9920  165.0773 N.ar    1  UNL1       -0.3234
     46 H         142.4350  141.3893  165.0121 H       1  UNL1        0.1686
     47 C         141.4929  142.1730  167.7390 C.ar    1  UNL1        0.1169
     48 C         142.9463  142.2714  168.0966 C.ar    1  UNL1        0.0223
     49 C         143.3997  141.9472  169.4892 C.ar    1  UNL1        0.0032
     50 C         142.3997  141.5245  170.5242 C.ar    1  UNL1        0.0207
     51 C         140.9461  141.4261  170.1666 C.ar    1  UNL1        0.0989
     52 N         140.4929  141.7503  168.7740 N.ar    1  UNL1       -0.2407
@<TRIPOS>BOND
     1    19    20    1
     2    20    21    1
     3    20    18    1
     4    18    17    1
     5    17    11    1
     6    11    12    1
     7    12    13    1
     8    13    14    1
     9    14     1    1
    10     1     2   ar
    11     2     3   ar
    12     3     4   ar
    13     4     5   ar
    14     5     6   ar
    15     6    22    1
    16    22    23   ar
    17    23    24   ar
    18    24    25   ar
    19    25    26   ar
    20    26    27   ar
    21     6     7   ar
    22     7    28    1
    23    28    29   ar
    24    29    30   ar
    25    30    31   ar
    26    31    34    1
    27    34    35    1
    28    35    36    1
    29    36    37    1
    30    37    38    1
    31    38    41    1
    32    41    42   ar
    33    42    43   ar
    34    43    44   ar
    35    44    47    1
    36    47    48   ar
    37    48    49   ar
    38    49    50   ar
    39    50    51   ar
    40    51    52   ar
    41    44    45   ar
    42    38    39    1
    43    39    40    1
    44    31    32   ar
    45    32    33   ar
    46     7     8   ar
    47     8     9   ar
    48     9    10   ar
    49    14    15    1
    50    15    16    1
    51    16    11    1
    52    10     1   ar
    53     9     4   ar
    54    27    22   ar
    55    33    28   ar
    56    40    35    1
    57    45    41   ar
    58    52    47   ar
    59    45    46    1
@<TRIPOS>MOLECULE
*****
 52 59 0 0 0
SMALL
GASTEIGER

@<TRIPOS>ATOM
      1 C         139.9184  142.6804  163.8476 C.ar    1  UNL1        0.2216
      2 N         139.9141  144.1689  163.6626 N.ar    1  UNL1       -0.2120
      3 C         139.9626  144.7531  162.2819 C.ar    1  UNL1        0.1048
      4 C         140.0154  143.8489  161.0863 C.ar    1  UNL1        0.0551
      5 C         140.0639  144.4332  159.7056 C.ar    1  UNL1        0.0061
      6 C         140.1167  143.5289  158.5099 C.ar    1  UNL1        0.0179
      7 C         140.1211  142.0403  158.6951 C.ar    1  UNL1        0.0829
      8 N         140.0726  141.4561  160.0757 N.ar    1  UNL1       -0.2264
      9 C         140.0198  142.3604  161.2713 C.ar    1  UNL1        0.1666
     10 N         139.9713  141.7761  162.6520 N.ar    1  UNL1       -0.1945
     11 N         139.7729  140.9275  167.9897 N.3     1  UNL1       -0.2686
     12 C         140.3508  142.2947  167.7738 C.3     1  UNL1        0.0939
     13 C         140.3993  142.8790  166.3931 C.3     1  UNL1        0.1109
     14 N         139.8699  142.0961  165.2283 N.pl3   1  UNL1       -0.2753
     15 C         139.2920  140.7288  165.4442 C.3     1  UNL1        0.1109
     16 C         139.2435  140.1445  166.8248 C.3     1  UNL1        0.0939
     17 C         139.7244  140.3431  169.3703 C.3     1  UNL1        0.0897
     18 C         140.7919  140.6847  170.3671 C.3     1  UNL1        0.0897
     19 C         142.5640  138.8222  169.9918 C.3     1  UNL1        0.0897
     20 N         142.2127  140.2753  170.1145 N.3     1  UNL1       -0.2691
     21 C         143.2821  141.3191  169.9846 C.3     1  UNL1        0.0897
     22 C         140.1652  144.1131  157.1293 C.ar    1  UNL1        0.0015
     23 C         138.9031  144.2590  156.3318 C.ar    1  UNL1        0.0000
     24 C         138.9516  144.8432  154.9512 C.ar    1  UNL1        0.0000
     25 C         140.2622  145.2816  154.3679 C.ar    1  UNL1        0.0000
     26 C         141.5243  145.1358  155.1653 C.ar    1  UNL1        0.0000
     27 C         141.4758  144.5516  156.5460 C.ar    1  UNL1        0.0000
     28 C         140.1739  141.1360  157.4994 C.ar    1  UNL1        0.0177
     29 C         141.4916  140.8190  156.8565 C.ar    1  UNL1        0.0012
     30 C         141.5444  139.9147  155.6609 C.ar    1  UNL1       -0.0029
     31 C         140.2796  139.3275  155.1082 C.ar    1  UNL1       -0.0061
     32 C         138.9620  139.6446  155.7511 C.ar    1  UNL1       -0.0029
     33 C         138.9092  140.5488  156.9467 C.ar    1  UNL1        0.0012
     34 C         140.3324  138.4232  153.9126 C.3     1  UNL1        0.0991
     35 N         140.9004  137.0409  154.0422 N.3     1  UNL1       -0.2689
     36 C         140.9085  136.3555  155.3764 C.3     1  UNL1        0.0728
     37 C         141.4765  134.9732  155.5060 C.3     1  UNL1        0.0249
     38 C         142.0363  134.2764  154.3014 C.3     1  UNL1        0.0613
     39 C         142.0281  134.9619  152.9672 C.3     1  UNL1        0.0249
     40 C         141.4602  136.3441  152.8376 C.3     1  UNL1        0.0728
     41 C         142.6042  132.8942  154.4310 C.ar    1  UNL1        0.1396
     42 N         142.8381  131.9281  153.3075 N.ar    1  UNL1       -0.1335
     43 N         143.4164  130.6722  153.8890 N.ar    1  UNL1       -0.1277
     44 C         143.5400  130.8620  155.3718 C.ar    1  UNL1        0.1807
     45 N         143.0380  132.2352  155.7068 N.ar    1  UNL1       -0.3234
     46 H         142.9999  132.6341  156.6061 H       1  UNL1        0.1686
     47 C         144.0721  129.8553  156.3483 C.ar    1  UNL1        0.1169
     48 C         144.7744  128.6267  155.8510 C.ar    1  UNL1        0.0223
     49 C         145.3065  127.6200  156.8274 C.ar    1  UNL1        0.0032
     50 C         145.1363  127.8418  158.3011 C.ar    1  UNL1        0.0207
     51 C         144.4340  129.0706  158.7984 C.ar    1  UNL1        0.0989
     52 N         143.9019  130.0772  157.8220 N.ar    1  UNL1       -0.2407
@<TRIPOS>BOND
     1    19    20    1
     2    20    21    1
     3    20    18    1
     4    18    17    1
     5    17    11    1
     6    11    12    1
     7    12    13    1
     8    13    14    1
     9    14     1    1
    10     1     2   ar
    11     2     3   ar
    12     3     4   ar
    13     4     5   ar
    14     5     6   ar
    15     6    22    1
    16    22    23   ar
    17    23    24   ar
    18    24    25   ar
    19    25    26   ar
    20    26    27   ar
    21     6     7   ar
    22     7    28    1
    23    28    29   ar
    24    29    30   ar
    25    30    31   ar
    26    31    34    1
    27    34    35    1
    28    35    36    1
    29    36    37    1
    30    37    38    1
    31    38    41    1
    32    41    42   ar
    33    42    43   ar
    34    43    44   ar
    35    44    47    1
    36    47    48   ar
    37    48    49   ar
    38    49    50   ar
    39    50    51   ar
    40    51    52   ar
    41    44    45   ar
    42    38    39    1
    43    39    40    1
    44    31    32   ar
    45    32    33   ar
    46     7     8   ar
    47     8     9   ar
    48     9    10   ar
    49    14    15    1
    50    15    16    1
    51    16    11    1
    52    10     1   ar
    53     9     4   ar
    54    27    22   ar
    55    33    28   ar
    56    40    35    1
    57    45    41   ar
    58    52    47   ar
    59    45    46    1
@<TRIPOS>MOLECULE
*****
 52 59 0 0 0
SMALL
GASTEIGER

@<TRIPOS>ATOM
      1 C         142.9540  130.9508  156.5286 C.ar    1  UNL1        0.2216
      2 N         142.3740  130.6955  155.1691 N.ar    1  UNL1       -0.2120
      3 C         141.8453  131.8375  154.3528 C.ar    1  UNL1        0.1048
      4 C         141.8968  133.2347  154.8960 C.ar    1  UNL1        0.0551
      5 C         141.3681  134.3767  154.0796 C.ar    1  UNL1        0.0061
      6 C         141.4195  135.7740  154.6228 C.ar    1  UNL1        0.0179
      7 C         141.9996  136.0292  155.9824 C.ar    1  UNL1        0.0829
      8 N         142.5282  134.8872  156.7987 N.ar    1  UNL1       -0.2264
      9 C         142.4768  133.4900  156.2555 C.ar    1  UNL1        0.1666
     10 N         143.0054  132.3480  157.0718 N.ar    1  UNL1       -0.1945
     11 N         144.5400  127.5249  158.9778 N.3     1  UNL1       -0.2686
     12 C         143.3916  127.3064  158.0378 C.3     1  UNL1        0.0939
     13 C         142.8630  128.4484  157.2214 C.3     1  UNL1        0.1109
     14 N         143.4827  129.8088  157.3450 N.pl3   1  UNL1       -0.2753
     15 C         144.6311  130.0272  158.2849 C.3     1  UNL1        0.1109
     16 C         145.1597  128.8853  159.1013 C.3     1  UNL1        0.0939
     17 C         145.0687  126.3830  159.7941 C.3     1  UNL1        0.0897
     18 C         146.4914  126.3962  160.2693 C.3     1  UNL1        0.0897
     19 C         145.8656  127.1050  162.6892 C.3     1  UNL1        0.0897
     20 N         146.8465  127.0832  161.5546 N.3     1  UNL1       -0.2691
     21 C         148.1825  127.7483  161.7053 C.3     1  UNL1        0.0897
     22 C         140.8909  136.9159  153.8065 C.ar    1  UNL1        0.0015
     23 C         141.8063  137.6659  152.8847 C.ar    1  UNL1        0.0000
     24 C         141.2776  138.8079  152.0683 C.ar    1  UNL1        0.0000
     25 C         139.8336  139.2000  152.1738 C.ar    1  UNL1        0.0000
     26 C         138.9183  138.4501  153.0956 C.ar    1  UNL1        0.0000
     27 C         139.4469  137.3080  153.9119 C.ar    1  UNL1        0.0000
     28 C         142.0510  137.4265  156.5256 C.ar    1  UNL1        0.0177
     29 C         143.2597  138.2813  156.2835 C.ar    1  UNL1        0.0012
     30 C         143.3111  139.6785  156.8267 C.ar    1  UNL1       -0.0029
     31 C         142.1538  140.2209  157.6120 C.ar    1  UNL1       -0.0061
     32 C         140.9453  139.3661  157.8541 C.ar    1  UNL1       -0.0029
     33 C         140.8939  137.9689  157.3109 C.ar    1  UNL1        0.0012
     34 C         142.2053  141.6182  158.1552 C.3     1  UNL1        0.0991
     35 N         141.8177  141.8838  159.5798 N.3     1  UNL1       -0.2689
     36 C         140.8411  142.9763  159.9002 C.3     1  UNL1        0.0728
     37 C         140.4536  143.2418  161.3248 C.3     1  UNL1        0.0249
     38 C         141.0427  142.4149  162.4289 C.3     1  UNL1        0.0613
     39 C         142.0193  141.3223  162.1085 C.3     1  UNL1        0.0249
     40 C         142.4068  141.0568  160.6839 C.3     1  UNL1        0.0728
     41 C         140.6552  142.6804  163.8534 C.ar    1  UNL1        0.1396
     42 N         139.8673  143.8571  164.3482 N.ar    1  UNL1       -0.1335
     43 N         139.7127  143.7198  165.8339 N.ar    1  UNL1       -0.1277
     44 C         140.4051  142.4582  166.2573 C.ar    1  UNL1        0.1807
     45 N         140.9875  141.8159  165.0333 N.ar    1  UNL1       -0.3234
     46 H         141.4983  140.9746  165.0087 H       1  UNL1        0.1686
     47 C         140.4985  141.9316  167.6587 C.ar    1  UNL1        0.1169
     48 C         139.7706  140.6761  168.0382 C.ar    1  UNL1        0.0223
     49 C         139.8641  140.1494  169.4396 C.ar    1  UNL1        0.0032
     50 C         140.6854  140.8782  170.4615 C.ar    1  UNL1        0.0207
     51 C         141.4133  142.1337  170.0819 C.ar    1  UNL1        0.0989
     52 N         141.3198  142.6603  168.6806 N.ar    1  UNL1       -0.2407
@<TRIPOS>BOND
     1    19    20    1
     2    20    21    1
     3    20    18    1
     4    18    17    1
     5    17    11    1
     6    11    12    1
     7    12    13    1
     8    13    14    1
     9    14     1    1
    10     1     2   ar
    11     2     3   ar
    12     3     4   ar
    13     4     5   ar
    14     5     6   ar
    15     6    22    1
    16    22    23   ar
    17    23    24   ar
    18    24    25   ar
    19    25    26   ar
    20    26    27   ar
    21     6     7   ar
    22     7    28    1
    23    28    29   ar
    24    29    30   ar
    25    30    31   ar
    26    31    34    1
    27    34    35    1
    28    35    36    1
    29    36    37    1
    30    37    38    1
    31    38    41    1
    32    41    42   ar
    33    42    43   ar
    34    43    44   ar
    35    44    47    1
    36    47    48   ar
    37    48    49   ar
    38    49    50   ar
    39    50    51   ar
    40    51    52   ar
    41    44    45   ar
    42    38    39    1
    43    39    40    1
    44    31    32   ar
    45    32    33   ar
    46     7     8   ar
    47     8     9   ar
    48     9    10   ar
    49    14    15    1
    50    15    16    1
    51    16    11    1
    52    10     1   ar
    53     9     4   ar
    54    27    22   ar
    55    33    28   ar
    56    40    35    1
    57    45    41   ar
    58    52    47   ar
    59    45    46    1
@<TRIPOS>MOLECULE
*****
 52 59 0 0 0
SMALL
GASTEIGER

@<TRIPOS>ATOM
      1 C         140.6927  142.1236  163.5417 C.ar    1  UNL1        0.2216
      2 N         140.2022  143.5326  163.3861 N.ar    1  UNL1       -0.2120
      3 C         140.0376  144.1224  162.0169 C.ar    1  UNL1        0.1048
      4 C         140.3634  143.3034  160.8032 C.ar    1  UNL1        0.0551
      5 C         140.1987  143.8933  159.4339 C.ar    1  UNL1        0.0061
      6 C         140.5245  143.0742  158.2203 C.ar    1  UNL1        0.0179
      7 C         141.0150  141.6652  158.3759 C.ar    1  UNL1        0.0829
      8 N         141.1796  141.0753  159.7452 N.ar    1  UNL1       -0.2264
      9 C         140.8538  141.8944  160.9588 C.ar    1  UNL1        0.1666
     10 N         141.0185  141.3045  162.3281 N.ar    1  UNL1       -0.1945
     11 N         141.1867  140.3538  167.6496 N.3     1  UNL1       -0.2686
     12 C         142.3849  140.5522  166.7693 C.3     1  UNL1        0.0939
     13 C         142.2203  141.1421  165.4000 C.3     1  UNL1        0.1109
     14 N         140.8574  141.5337  164.9110 N.pl3   1  UNL1       -0.2753
     15 C         139.6591  141.3354  165.7913 C.3     1  UNL1        0.1109
     16 C         139.8237  140.7455  167.1605 C.3     1  UNL1        0.0939
     17 C         141.3513  139.7639  169.0188 C.3     1  UNL1        0.0897
     18 C         142.4811  140.2122  169.8977 C.3     1  UNL1        0.0897
     19 C         143.9380  142.3633  169.8707 C.3     1  UNL1        0.0897
     20 N         142.6535  141.6686  170.2133 N.3     1  UNL1       -0.2691
     21 C         141.5414  142.4301  170.8715 C.3     1  UNL1        0.0897
     22 C         140.3598  143.6641  156.8510 C.ar    1  UNL1        0.0015
     23 C         141.5032  144.3878  156.2037 C.ar    1  UNL1        0.0000
     24 C         141.3386  144.9777  154.8344 C.ar    1  UNL1        0.0000
     25 C         140.0306  144.8439  154.1124 C.ar    1  UNL1        0.0000
     26 C         138.8872  144.1202  154.7597 C.ar    1  UNL1        0.0000
     27 C         139.0519  143.5302  156.1290 C.ar    1  UNL1        0.0000
     28 C         141.3408  140.8461  157.1623 C.ar    1  UNL1        0.0177
     29 C         140.2913  139.9698  156.5450 C.ar    1  UNL1        0.0012
     30 C         140.6171  139.1507  155.3313 C.ar    1  UNL1       -0.0029
     31 C         141.9923  139.2079  154.7350 C.ar    1  UNL1       -0.0061
     32 C         143.0417  140.0841  155.3522 C.ar    1  UNL1       -0.0029
     33 C         142.7159  140.9032  156.5659 C.ar    1  UNL1        0.0012
     34 C         142.3181  138.3888  153.5213 C.3     1  UNL1        0.0991
     35 N         142.2750  136.8911  153.5936 N.3     1  UNL1       -0.2689
     36 C         142.8755  136.1794  154.7695 C.3     1  UNL1        0.0728
     37 C         142.8324  134.6817  154.8417 C.3     1  UNL1        0.0249
     38 C         142.1888  133.8958  153.7380 C.3     1  UNL1        0.0613
     39 C         141.5883  134.6076  152.5621 C.3     1  UNL1        0.0249
     40 C         141.6314  136.1052  152.4899 C.3     1  UNL1        0.0728
     41 C         142.1456  132.3982  153.8103 C.ar    1  UNL1        0.1396
     42 N         142.8101  131.4500  152.8566 N.ar    1  UNL1       -0.1335
     43 N         142.5056  130.0516  153.3057 N.ar    1  UNL1       -0.1277
     44 C         141.6529  130.1356  154.5370 C.ar    1  UNL1        0.1807
     45 N         141.4305  131.5859  154.8488 N.ar    1  UNL1       -0.3234
     46 H         140.9070  131.9420  155.6027 H       1  UNL1        0.1686
     47 C         141.1169  128.9733  155.3192 C.ar    1  UNL1        0.1169
     48 C         139.6857  128.5550  155.1551 C.ar    1  UNL1        0.0223
     49 C         139.1497  127.3928  155.9373 C.ar    1  UNL1        0.0032
     50 C         140.0447  126.6487  156.8835 C.ar    1  UNL1        0.0207
     51 C         141.4759  127.0671  157.0475 C.ar    1  UNL1        0.0989
     52 N         142.0119  128.2293  156.2654 N.ar    1  UNL1       -0.2407
@<TRIPOS>BOND
     1    19    20    1
     2    20    21    1
     3    20    18    1
     4    18    17    1
     5    17    11    1
     6    11    12    1
     7    12    13    1
     8    13    14    1
     9    14     1    1
    10     1     2   ar
    11     2     3   ar
    12     3     4   ar
    13     4     5   ar
    14     5     6   ar
    15     6    22    1
    16    22    23   ar
    17    23    24   ar
    18    24    25   ar
    19    25    26   ar
    20    26    27   ar
    21     6     7   ar
    22     7    28    1
    23    28    29   ar
    24    29    30   ar
    25    30    31   ar
    26    31    34    1
    27    34    35    1
    28    35    36    1
    29    36    37    1
    30    37    38    1
    31    38    41    1
    32    41    42   ar
    33    42    43   ar
    34    43    44   ar
    35    44    47    1
    36    47    48   ar
    37    48    49   ar
    38    49    50   ar
    39    50    51   ar
    40    51    52   ar
    41    44    45   ar
    42    38    39    1
    43    39    40    1
    44    31    32   ar
    45    32    33   ar
    46     7     8   ar
    47     8     9   ar
    48     9    10   ar
    49    14    15    1
    50    15    16    1
    51    16    11    1
    52    10     1   ar
    53     9     4   ar
    54    27    22   ar
    55    33    28   ar
    56    40    35    1
    57    45    41   ar
    58    52    47   ar
    59    45    46    1
@<TRIPOS>MOLECULE
*****
 52 59 0 0 0
SMALL
GASTEIGER

@<TRIPOS>ATOM
      1 C         142.2926  141.5848  165.3105 C.ar    1  UNL1        0.2216
      2 N         141.9715  143.0487  165.2487 N.ar    1  UNL1       -0.2120
      3 C         141.7308  143.7083  163.9232 C.ar    1  UNL1        0.1048
      4 C         141.8113  142.9041  162.6596 C.ar    1  UNL1        0.0551
      5 C         141.5706  143.5639  161.3341 C.ar    1  UNL1        0.0061
      6 C         141.6510  142.7597  160.0705 C.ar    1  UNL1        0.0179
      7 C         141.9721  141.2957  160.1323 C.ar    1  UNL1        0.0829
      8 N         142.2128  140.6360  161.4578 N.ar    1  UNL1       -0.2264
      9 C         142.1324  141.4402  162.7214 C.ar    1  UNL1        0.1666
     10 N         142.3730  140.7806  164.0469 N.ar    1  UNL1       -0.1945
     11 N         143.0147  139.6056  169.2869 N.3     1  UNL1       -0.2686
     12 C         142.9494  138.7775  168.0379 C.3     1  UNL1        0.0939
     13 C         142.7087  139.4373  166.7124 C.3     1  UNL1        0.1109
     14 N         142.5333  140.9250  166.6360 N.pl3   1  UNL1       -0.2753
     15 C         142.5986  141.7531  167.8850 C.3     1  UNL1        0.1109
     16 C         142.8393  141.0934  169.2105 C.3     1  UNL1        0.0939
     17 C         143.2554  138.9459  170.6124 C.3     1  UNL1        0.0897
     18 C         143.3318  137.4506  170.7030 C.3     1  UNL1        0.0897
     19 C         145.4862  137.6035  172.1470 C.3     1  UNL1        0.0897
     20 N         144.5367  136.7967  171.3119 N.3     1  UNL1       -0.2691
     21 C         144.7921  135.3361  171.0855 C.3     1  UNL1        0.0897
     22 C         141.4103  143.4194  158.7450 C.ar    1  UNL1        0.0015
     23 C         140.0093  143.5993  158.2402 C.ar    1  UNL1        0.0000
     24 C         139.7686  144.2590  156.9148 C.ar    1  UNL1        0.0000
     25 C         140.9289  144.7387  156.0941 C.ar    1  UNL1        0.0000
     26 C         142.3299  144.5588  156.5988 C.ar    1  UNL1        0.0000
     27 C         142.5706  143.8991  157.9243 C.ar    1  UNL1        0.0000
     28 C         142.0525  140.4915  158.8687 C.ar    1  UNL1        0.0177
     29 C         143.3651  140.3396  158.1586 C.ar    1  UNL1        0.0012
     30 C         143.4455  139.5354  156.8950 C.ar    1  UNL1       -0.0029
     31 C         142.2134  138.8831  156.3414 C.ar    1  UNL1       -0.0061
     32 C         140.9009  139.0350  157.0515 C.ar    1  UNL1       -0.0029
     33 C         140.8205  139.8392  158.3151 C.ar    1  UNL1        0.0012
     34 C         142.2938  138.0789  155.0778 C.3     1  UNL1        0.0991
     35 N         142.1663  136.5851  155.1300 N.3     1  UNL1       -0.2689
     36 C         141.1615  135.8874  154.2620 C.3     1  UNL1        0.0728
     37 C         141.0340  134.3937  154.3142 C.3     1  UNL1        0.0249
     38 C         141.9113  133.5978  155.2345 C.3     1  UNL1        0.0613
     39 C         142.9161  134.2956  156.1026 C.3     1  UNL1        0.0249
     40 C         143.0436  135.7893  156.0503 C.3     1  UNL1        0.0728
     41 C         141.7838  132.1042  155.2868 C.ar    1  UNL1        0.1396
     42 N         142.7833  131.1541  155.8770 N.ar    1  UNL1       -0.1335
     43 N         142.2517  129.7611  155.7130 N.ar    1  UNL1       -0.1277
     44 C         140.9236  129.8503  155.0214 C.ar    1  UNL1        0.1807
     45 N         140.6345  131.2984  154.7580 N.ar    1  UNL1       -0.3234
     46 H         139.8313  131.6570  154.3158 H       1  UNL1        0.1686
     47 C         140.0398  128.6943  154.6572 C.ar    1  UNL1        0.1169
     48 C         139.8415  128.3266  153.2166 C.ar    1  UNL1        0.0223
     49 C         138.9577  127.1706  152.8524 C.ar    1  UNL1        0.0032
     50 C         138.2723  126.3823  153.9288 C.ar    1  UNL1        0.0207
     51 C         138.4707  126.7500  155.3695 C.ar    1  UNL1        0.0989
     52 N         139.3544  127.9059  155.7336 N.ar    1  UNL1       -0.2407
@<TRIPOS>BOND
     1    19    20    1
     2    20    21    1
     3    20    18    1
     4    18    17    1
     5    17    11    1
     6    11    12    1
     7    12    13    1
     8    13    14    1
     9    14     1    1
    10     1     2   ar
    11     2     3   ar
    12     3     4   ar
    13     4     5   ar
    14     5     6   ar
    15     6    22    1
    16    22    23   ar
    17    23    24   ar
    18    24    25   ar
    19    25    26   ar
    20    26    27   ar
    21     6     7   ar
    22     7    28    1
    23    28    29   ar
    24    29    30   ar
    25    30    31   ar
    26    31    34    1
    27    34    35    1
    28    35    36    1
    29    36    37    1
    30    37    38    1
    31    38    41    1
    32    41    42   ar
    33    42    43   ar
    34    43    44   ar
    35    44    47    1
    36    47    48   ar
    37    48    49   ar
    38    49    50   ar
    39    50    51   ar
    40    51    52   ar
    41    44    45   ar
    42    38    39    1
    43    39    40    1
    44    31    32   ar
    45    32    33   ar
    46     7     8   ar
    47     8     9   ar
    48     9    10   ar
    49    14    15    1
    50    15    16    1
    51    16    11    1
    52    10     1   ar
    53     9     4   ar
    54    27    22   ar
    55    33    28   ar
    56    40    35    1
    57    45    41   ar
    58    52    47   ar
    59    45    46    1
