@<TRIPOS>MOLECULE
*****
 26 29 0 0 0
SMALL
GASTEIGER

@<TRIPOS>ATOM
      1 C         140.2834  137.9857  164.1619 C.ar    1  UNL1        0.1386
      2 C         139.0090  138.3875  164.8434 C.ar    1  UNL1        0.0369
      3 C         139.0566  139.1105  166.1568 C.ar    1  UNL1        0.0043
      4 C         140.3786  139.4316  166.7887 C.ar    1  UNL1        0.0152
      5 C         141.6530  139.0297  166.1072 C.ar    1  UNL1        0.0043
      6 C         141.6054  138.3068  164.7937 C.ar    1  UNL1        0.0369
      7 C         140.4263  140.1545  168.1021 C.2     1  UNL1        0.0763
      8 N         139.4595  139.7955  169.1913 N.2     1  UNL1       -0.1836
      9 N         139.5071  140.5184  170.5047 N.am    1  UNL1       -0.2062
     10 C         140.5215  141.6004  170.7290 C.2     1  UNL1        0.2410
     11 O         140.5691  142.3233  172.0424 O.2     1  UNL1       -0.2734
     12 C         141.4883  141.9595  169.6397 C.3     1  UNL1        0.0841
     13 C         142.4551  142.3185  168.5506 C.3     1  UNL1        0.0160
     14 C         141.4407  141.2365  168.3263 C.3     1  UNL1        0.0509
     15 H         138.8725  140.2828  171.2196 H       1  UNL1        0.1772
     16 O         140.2358  137.2627  162.8484 O.3     1  UNL1       -0.4754
     17 C         140.1322  138.0383  161.5687 C.3     1  UNL1        0.2067
     18 C         137.6840  138.8883  161.3845 C.3     1  UNL1        0.0053
     19 C         139.1554  139.1710  161.4552 C.3     1  UNL1        0.0597
     20 C         139.6499  140.5865  161.4124 C.3     1  UNL1        0.0757
     21 N         139.9934  141.2998  162.6864 N.3     1  UNL1       -0.2738
     22 C         141.3743  141.5183  163.2299 C.3     1  UNL1        0.0721
     23 C         141.2505  142.2735  164.5201 C.3     1  UNL1        0.0187
     24 C         139.7932  142.5217  164.7740 C.3     1  UNL1        0.0174
     25 C         139.0162  141.9199  163.6407 C.3     1  UNL1        0.0576
     26 C         137.5240  141.9355  163.4885 C.3     1  UNL1        0.0173
@<TRIPOS>BOND
     1    19    18    1
     2    19    17    1
     3    17    16    1
     4    16     1    1
     5     1     2   ar
     6     2     3   ar
     7     3     4   ar
     8     4     7    1
     9     7     8    2
    10     8     9    1
    11     9    10   am
    12    10    11    2
    13    10    12    1
    14    12    13    1
    15    13    14    1
    16     4     5   ar
    17     5     6   ar
    18    19    20    1
    19    20    21    1
    20    21    22    1
    21    22    23    1
    22    23    24    1
    23    24    25    1
    24    25    26    1
    25     6     1   ar
    26    25    21    1
    27    14     7    1
    28    14    12    1
    29     9    15    1
@<TRIPOS>MOLECULE
*****
 26 29 0 0 0
SMALL
GASTEIGER

@<TRIPOS>ATOM
      1 C         140.3535  137.9992  164.1761 C.ar    1  UNL1        0.1386
      2 C         141.6678  138.3398  164.8139 C.ar    1  UNL1        0.0369
      3 C         141.6989  139.0607  166.1289 C.ar    1  UNL1        0.0043
      4 C         140.4156  139.4412  166.8061 C.ar    1  UNL1        0.0152
      5 C         139.1014  139.1006  166.1683 C.ar    1  UNL1        0.0043
      6 C         139.0704  138.3796  164.8533 C.ar    1  UNL1        0.0369
      7 C         140.4466  140.1621  168.1211 C.2     1  UNL1        0.0763
      8 N         139.4525  139.8162  169.1897 N.2     1  UNL1       -0.1836
      9 N         139.4835  140.5372  170.5047 N.am    1  UNL1       -0.2062
     10 C         140.5087  141.6041  170.7511 C.2     1  UNL1        0.2410
     11 O         140.5398  142.3250  172.0661 O.2     1  UNL1       -0.2734
     12 C         141.5029  141.9500  169.6825 C.3     1  UNL1        0.0841
     13 C         142.4971  142.2959  168.6139 C.3     1  UNL1        0.0160
     14 C         141.4719  141.2290  168.3675 C.3     1  UNL1        0.0509
     15 H         138.8310  140.3102  171.2061 H       1  UNL1        0.1772
     16 O         140.3225  137.2782  162.8611 O.3     1  UNL1       -0.4754
     17 C         140.1940  138.0536  161.5835 C.3     1  UNL1        0.2067
     18 C         137.7244  138.8427  161.4164 C.3     1  UNL1        0.0053
     19 C         139.1888  139.1618  161.4766 C.3     1  UNL1        0.0597
     20 C         139.6479  140.5890  161.4298 C.3     1  UNL1        0.0757
     21 N         139.9744  141.3139  162.7018 N.3     1  UNL1       -0.2738
     22 C         141.3501  141.5719  163.2413 C.3     1  UNL1        0.0721
     23 C         141.2085  142.3255  164.5306 C.3     1  UNL1        0.0187
     24 C         139.7453  142.5333  164.7878 C.3     1  UNL1        0.0174
     25 C         138.9827  141.9080  163.6575 C.3     1  UNL1        0.0576
     26 C         137.4903  141.8816  163.5091 C.3     1  UNL1        0.0173
@<TRIPOS>BOND
     1    19    18    1
     2    19    17    1
     3    17    16    1
     4    16     1    1
     5     1     2   ar
     6     2     3   ar
     7     3     4   ar
     8     4     7    1
     9     7     8    2
    10     8     9    1
    11     9    10   am
    12    10    11    2
    13    10    12    1
    14    12    13    1
    15    13    14    1
    16     4     5   ar
    17     5     6   ar
    18    19    20    1
    19    20    21    1
    20    21    22    1
    21    22    23    1
    22    23    24    1
    23    24    25    1
    24    25    26    1
    25     6     1   ar
    26    25    21    1
    27    14     7    1
    28    14    12    1
    29     9    15    1
@<TRIPOS>MOLECULE
*****
 26 29 0 0 0
SMALL
GASTEIGER

@<TRIPOS>ATOM
      1 C         143.1834  143.6322  164.4783 C.ar    1  UNL1        0.1386
      2 C         143.8327  142.9324  165.6354 C.ar    1  UNL1        0.0369
      3 C         142.9863  142.2750  166.6849 C.ar    1  UNL1        0.0043
      4 C         141.4908  142.3174  166.5774 C.ar    1  UNL1        0.0152
      5 C         140.8416  143.0172  165.4203 C.ar    1  UNL1        0.0043
      6 C         141.6879  143.6746  164.3708 C.ar    1  UNL1        0.0369
      7 C         140.6444  141.6600  167.6269 C.2     1  UNL1        0.0763
      8 N         140.0030  140.3327  167.3502 N.2     1  UNL1       -0.1836
      9 N         139.1567  139.6753  168.3997 N.am    1  UNL1       -0.2062
     10 C         138.9517  140.3452  169.7260 C.2     1  UNL1        0.2410
     11 O         138.1054  139.6879  170.7756 O.2     1  UNL1       -0.2734
     12 C         139.5931  141.6727  170.0028 C.3     1  UNL1        0.0841
     13 C         140.2345  143.0001  170.2795 C.3     1  UNL1        0.0160
     14 C         140.4395  142.3301  168.9533 C.3     1  UNL1        0.0509
     15 H         138.7357  138.8040  168.2181 H       1  UNL1        0.1772
     16 O         144.0298  144.2896  163.4287 O.3     1  UNL1       -0.4754
     17 C         144.6118  143.4719  162.3141 C.3     1  UNL1        0.2067
     18 C         142.6037  142.9746  160.7425 C.3     1  UNL1        0.0053
     19 C         143.7517  142.4888  161.5768 C.3     1  UNL1        0.0597
     20 C         144.0394  141.0199  161.6739 C.3     1  UNL1        0.0757
     21 N         143.7765  140.2873  162.9562 N.3     1  UNL1       -0.2738
     22 C         144.8166  139.7701  163.9054 C.3     1  UNL1        0.0721
     23 C         144.1101  139.1064  165.0502 C.3     1  UNL1        0.0187
     24 C         142.6336  139.2134  164.8085 C.3     1  UNL1        0.0174
     25 C         142.4274  139.9432  163.5144 C.3     1  UNL1        0.0576
     26 C         141.1044  140.2713  162.8883 C.3     1  UNL1        0.0173
@<TRIPOS>BOND
     1    19    18    1
     2    19    17    1
     3    17    16    1
     4    16     1    1
     5     1     2   ar
     6     2     3   ar
     7     3     4   ar
     8     4     7    1
     9     7     8    2
    10     8     9    1
    11     9    10   am
    12    10    11    2
    13    10    12    1
    14    12    13    1
    15    13    14    1
    16     4     5   ar
    17     5     6   ar
    18    19    20    1
    19    20    21    1
    20    21    22    1
    21    22    23    1
    22    23    24    1
    23    24    25    1
    24    25    26    1
    25     6     1   ar
    26    25    21    1
    27    14     7    1
    28    14    12    1
    29     9    15    1
@<TRIPOS>MOLECULE
*****
 26 29 0 0 0
SMALL
GASTEIGER

@<TRIPOS>ATOM
      1 C         142.3602  139.2728  163.8589 C.ar    1  UNL1        0.1386
      2 C         141.7133  140.6103  164.0657 C.ar    1  UNL1        0.0369
      3 C         141.4355  141.1021  165.4553 C.ar    1  UNL1        0.0043
      4 C         141.8046  140.2565  166.6380 C.ar    1  UNL1        0.0152
      5 C         142.4515  138.9191  166.4311 C.ar    1  UNL1        0.0043
      6 C         142.7293  138.4272  165.0416 C.ar    1  UNL1        0.0369
      7 C         141.5268  140.7483  168.0276 C.2     1  UNL1        0.0763
      8 N         142.5585  141.5563  168.7575 N.2     1  UNL1       -0.1836
      9 N         142.2807  142.0482  170.1470 N.am    1  UNL1       -0.2062
     10 C         140.9712  141.7320  170.8067 C.2     1  UNL1        0.2410
     11 O         140.6934  142.2239  172.1963 O.2     1  UNL1       -0.2734
     12 C         139.9395  140.9240  170.0769 C.3     1  UNL1        0.0841
     13 C         138.9078  140.1160  169.3470 C.3     1  UNL1        0.0160
     14 C         140.2173  140.4321  168.6873 C.3     1  UNL1        0.0509
     15 H         142.9578  142.5785  170.6260 H       1  UNL1        0.1772
     16 O         142.6381  138.7809  162.4693 O.3     1  UNL1       -0.4754
     17 C         141.6570  137.8770  161.7835 C.3     1  UNL1        0.2067
     18 C         140.2509  139.3796  160.1976 C.3     1  UNL1        0.0053
     19 C         140.3272  138.4115  161.3408 C.3     1  UNL1        0.0597
     20 C         139.0737  137.9781  162.0414 C.3     1  UNL1        0.0757
     21 N         138.8108  138.4202  163.4504 N.3     1  UNL1       -0.2738
     22 C         139.1013  137.6292  164.6915 C.3     1  UNL1        0.0721
     23 C         138.6812  138.4512  165.8739 C.3     1  UNL1        0.0187
     24 C         138.1312  139.7501  165.3636 C.3     1  UNL1        0.0174
     25 C         138.2113  139.7309  163.8659 C.3     1  UNL1        0.0576
     26 C         137.7695  140.8297  162.9452 C.3     1  UNL1        0.0173
@<TRIPOS>BOND
     1    19    18    1
     2    19    17    1
     3    17    16    1
     4    16     1    1
     5     1     2   ar
     6     2     3   ar
     7     3     4   ar
     8     4     7    1
     9     7     8    2
    10     8     9    1
    11     9    10   am
    12    10    11    2
    13    10    12    1
    14    12    13    1
    15    13    14    1
    16     4     5   ar
    17     5     6   ar
    18    19    20    1
    19    20    21    1
    20    21    22    1
    21    22    23    1
    22    23    24    1
    23    24    25    1
    24    25    26    1
    25     6     1   ar
    26    25    21    1
    27    14     7    1
    28    14    12    1
    29     9    15    1
@<TRIPOS>MOLECULE
*****
 26 29 0 0 0
SMALL
GASTEIGER

@<TRIPOS>ATOM
      1 C         138.3868  138.9975  163.4684 C.ar    1  UNL1        0.1386
      2 C         138.2340  140.4306  163.8843 C.ar    1  UNL1        0.0369
      3 C         138.5915  140.8487  165.2798 C.ar    1  UNL1        0.0043
      4 C         139.1018  139.8337  166.2594 C.ar    1  UNL1        0.0152
      5 C         139.2546  138.4007  165.8434 C.ar    1  UNL1        0.0043
      6 C         138.8971  137.9826  164.4479 C.ar    1  UNL1        0.0369
      7 C         139.4592  140.2519  167.6549 C.2     1  UNL1        0.0763
      8 N         138.7894  139.6000  168.8280 N.2     1  UNL1       -0.1836
      9 N         139.1468  140.0181  170.2234 N.am    1  UNL1       -0.2062
     10 C         140.1742  141.0881  170.4458 C.2     1  UNL1        0.2410
     11 O         140.5317  141.5063  171.8413 O.2     1  UNL1       -0.2734
     12 C         140.8441  141.7401  169.2727 C.3     1  UNL1        0.0841
     13 C         141.5140  142.3920  168.0996 C.3     1  UNL1        0.0160
     14 C         140.4867  141.3220  167.8772 C.3     1  UNL1        0.0509
     15 H         138.7071  139.5902  170.9934 H       1  UNL1        0.1772
     16 O         138.0294  138.5793  162.0729 O.3     1  UNL1       -0.4754
     17 C         139.1052  138.4131  161.0410 C.3     1  UNL1        0.2067
     18 C         139.5573  140.8061  160.1359 C.3     1  UNL1        0.0053
     19 C         140.0573  139.5382  160.7622 C.3     1  UNL1        0.0597
     20 C         141.5094  139.3953  161.1097 C.3     1  UNL1        0.0757
     21 N         141.9358  139.3512  162.5472 N.3     1  UNL1       -0.2738
     22 C         142.4152  138.1380  163.2878 C.3     1  UNL1        0.0721
     23 C         142.7333  138.5496  164.6948 C.3     1  UNL1        0.0187
     24 C         142.4506  140.0170  164.8237 C.3     1  UNL1        0.0174
     25 C         141.9577  140.5124  163.4964 C.3     1  UNL1        0.0576
     26 C         141.5571  141.9217  163.1748 C.3     1  UNL1        0.0173
@<TRIPOS>BOND
     1    19    18    1
     2    19    17    1
     3    17    16    1
     4    16     1    1
     5     1     2   ar
     6     2     3   ar
     7     3     4   ar
     8     4     7    1
     9     7     8    2
    10     8     9    1
    11     9    10   am
    12    10    11    2
    13    10    12    1
    14    12    13    1
    15    13    14    1
    16     4     5   ar
    17     5     6   ar
    18    19    20    1
    19    20    21    1
    20    21    22    1
    21    22    23    1
    22    23    24    1
    23    24    25    1
    24    25    26    1
    25     6     1   ar
    26    25    21    1
    27    14     7    1
    28    14    12    1
    29     9    15    1
@<TRIPOS>MOLECULE
*****
 26 29 0 0 0
SMALL
GASTEIGER

@<TRIPOS>ATOM
      1 C         140.9922  144.7005  163.6344 C.ar    1  UNL1        0.1386
      2 C         142.0362  143.7378  164.1174 C.ar    1  UNL1        0.0369
      3 C         141.7792  142.9020  165.3361 C.ar    1  UNL1        0.0043
      4 C         140.4781  143.0289  166.0718 C.ar    1  UNL1        0.0152
      5 C         139.4341  143.9916  165.5888 C.ar    1  UNL1        0.0043
      6 C         139.6912  144.8274  164.3701 C.ar    1  UNL1        0.0369
      7 C         140.2210  142.1930  167.2905 C.2     1  UNL1        0.0763
      8 N         140.5258  142.7404  168.6534 N.2     1  UNL1       -0.1836
      9 N         140.2688  141.9046  169.8721 N.am    1  UNL1       -0.2062
     10 C         139.7069  140.5213  169.7280 C.2     1  UNL1        0.2410
     11 O         139.4499  139.6855  170.9467 O.2     1  UNL1       -0.2734
     12 C         139.4021  139.9738  168.3651 C.3     1  UNL1        0.0841
     13 C         139.0974  139.4263  167.0023 C.3     1  UNL1        0.0160
     14 C         139.6592  140.8096  167.1464 C.3     1  UNL1        0.0509
     15 H         140.4688  142.2639  170.7666 H       1  UNL1        0.1772
     16 O         141.2492  145.5364  162.4156 O.3     1  UNL1       -0.4754
     17 C         140.8302  145.0399  161.0637 C.3     1  UNL1        0.2067
     18 C         142.6601  143.3342  160.3624 C.3     1  UNL1        0.0053
     19 C         141.2187  143.6615  160.6173 C.3     1  UNL1        0.0597
     20 C         140.1657  142.6106  160.4260 C.3     1  UNL1        0.0757
     21 N         139.3052  142.1919  161.5811 N.3     1  UNL1       -0.2738
     22 C         137.9306  142.7076  161.8889 C.3     1  UNL1        0.0721
     23 C         137.4441  142.0184  163.1292 C.3     1  UNL1        0.0187
     24 C         138.5179  141.0770  163.5880 C.3     1  UNL1        0.0174
     25 C         139.6682  141.1842  162.6312 C.3     1  UNL1        0.0576
     26 C         140.9554  140.4182  162.7106 C.3     1  UNL1        0.0173
@<TRIPOS>BOND
     1    19    18    1
     2    19    17    1
     3    17    16    1
     4    16     1    1
     5     1     2   ar
     6     2     3   ar
     7     3     4   ar
     8     4     7    1
     9     7     8    2
    10     8     9    1
    11     9    10   am
    12    10    11    2
    13    10    12    1
    14    12    13    1
    15    13    14    1
    16     4     5   ar
    17     5     6   ar
    18    19    20    1
    19    20    21    1
    20    21    22    1
    21    22    23    1
    22    23    24    1
    23    24    25    1
    24    25    26    1
    25     6     1   ar
    26    25    21    1
    27    14     7    1
    28    14    12    1
    29     9    15    1
@<TRIPOS>MOLECULE
*****
 26 29 0 0 0
SMALL
GASTEIGER

@<TRIPOS>ATOM
      1 C         140.8052  138.7121  163.9272 C.ar    1  UNL1        0.1386
      2 C         141.9579  138.4967  164.8626 C.ar    1  UNL1        0.0369
      3 C         141.9151  139.0669  166.2494 C.ar    1  UNL1        0.0043
      4 C         140.7195  139.8523  166.7008 C.ar    1  UNL1        0.0152
      5 C         139.5669  140.0677  165.7654 C.ar    1  UNL1        0.0043
      6 C         139.6097  139.4976  164.3786 C.ar    1  UNL1        0.0369
      7 C         140.6767  140.4225  168.0875 C.2     1  UNL1        0.0763
      8 N         139.6040  139.9909  169.0431 N.2     1  UNL1       -0.1836
      9 N         139.5611  140.5610  170.4298 N.am    1  UNL1       -0.2062
     10 C         140.5910  141.5627  170.8611 C.2     1  UNL1        0.2410
     11 O         140.5481  142.1328  172.2478 O.2     1  UNL1       -0.2734
     12 C         141.6637  141.9943  169.9055 C.3     1  UNL1        0.0841
     13 C         142.7364  142.4259  168.9500 C.3     1  UNL1        0.0160
     14 C         141.7065  141.4242  168.5187 C.3     1  UNL1        0.0509
     15 H         138.8571  140.2777  171.0570 H       1  UNL1        0.1772
     16 O         140.8480  138.1420  162.5405 O.3     1  UNL1       -0.4754
     17 C         141.4559  138.9352  161.4219 C.3     1  UNL1        0.2067
     18 C         144.0095  138.4595  161.4747 C.3     1  UNL1        0.0053
     19 C         142.8674  139.4301  161.5342 C.3     1  UNL1        0.0597
     20 C         143.1370  140.8957  161.7058 C.3     1  UNL1        0.0757
     21 N         143.0453  141.5208  163.0663 N.3     1  UNL1       -0.2738
     22 C         141.8984  142.3356  163.5868 C.3     1  UNL1        0.0721
     23 C         142.2288  142.7592  164.9873 C.3     1  UNL1        0.0187
     24 C         143.5798  142.2063  165.3324 C.3     1  UNL1        0.0174
     25 C         144.0844  141.4409  164.1451 C.3     1  UNL1        0.0576
     26 C         145.3976  140.7219  164.0529 C.3     1  UNL1        0.0173
@<TRIPOS>BOND
     1    19    18    1
     2    19    17    1
     3    17    16    1
     4    16     1    1
     5     1     2   ar
     6     2     3   ar
     7     3     4   ar
     8     4     7    1
     9     7     8    2
    10     8     9    1
    11     9    10   am
    12    10    11    2
    13    10    12    1
    14    12    13    1
    15    13    14    1
    16     4     5   ar
    17     5     6   ar
    18    19    20    1
    19    20    21    1
    20    21    22    1
    21    22    23    1
    22    23    24    1
    23    24    25    1
    24    25    26    1
    25     6     1   ar
    26    25    21    1
    27    14     7    1
    28    14    12    1
    29     9    15    1
@<TRIPOS>MOLECULE
*****
 26 29 0 0 0
SMALL
GASTEIGER

@<TRIPOS>ATOM
      1 C         144.2904  140.9077  164.2176 C.ar    1  UNL1        0.1386
      2 C         143.9925  142.3081  164.6651 C.ar    1  UNL1        0.0369
      3 C         143.3167  142.5465  165.9828 C.ar    1  UNL1        0.0043
      4 C         142.9386  141.3846  166.8529 C.ar    1  UNL1        0.0152
      5 C         143.2364  139.9843  166.4053 C.ar    1  UNL1        0.0043
      6 C         143.9123  139.7458  165.0876 C.ar    1  UNL1        0.0369
      7 C         142.2627  141.6230  168.1706 C.2     1  UNL1        0.0763
      8 N         142.9113  142.5028  169.1979 N.2     1  UNL1       -0.1836
      9 N         142.2354  142.7412  170.5156 N.am    1  UNL1       -0.2062
     10 C         140.9109  142.0999  170.8060 C.2     1  UNL1        0.2410
     11 O         140.2350  142.3384  172.1237 O.2     1  UNL1       -0.2734
     12 C         140.2622  141.2201  169.7787 C.3     1  UNL1        0.0841
     13 C         139.6136  140.3404  168.7515 C.3     1  UNL1        0.0160
     14 C         140.9381  140.9817  168.4610 C.3     1  UNL1        0.0509
     15 H         142.6612  143.3186  171.1898 H       1  UNL1        0.1772
     16 O         144.9663  140.6692  162.8999 O.3     1  UNL1       -0.4754
     17 C         144.1445  140.4432  161.6655 C.3     1  UNL1        0.2067
     18 C         143.9337  137.8672  161.4017 C.3     1  UNL1        0.0053
     19 C         143.2916  139.2150  161.5468 C.3     1  UNL1        0.0597
     20 C         141.7967  139.3347  161.5731 C.3     1  UNL1        0.0757
     21 N         141.0890  139.6104  162.8666 N.3     1  UNL1       -0.2738
     22 C         140.6439  140.9558  163.3587 C.3     1  UNL1        0.0721
     23 C         139.9820  140.7660  164.6914 C.3     1  UNL1        0.0187
     24 C         140.0179  139.3035  165.0228 C.3     1  UNL1        0.0174
     25 C         140.7021  138.5894  163.8950 C.3     1  UNL1        0.0576
     26 C         140.9549  137.1132  163.8105 C.3     1  UNL1        0.0173
@<TRIPOS>BOND
     1    19    18    1
     2    19    17    1
     3    17    16    1
     4    16     1    1
     5     1     2   ar
     6     2     3   ar
     7     3     4   ar
     8     4     7    1
     9     7     8    2
    10     8     9    1
    11     9    10   am
    12    10    11    2
    13    10    12    1
    14    12    13    1
    15    13    14    1
    16     4     5   ar
    17     5     6   ar
    18    19    20    1
    19    20    21    1
    20    21    22    1
    21    22    23    1
    22    23    24    1
    23    24    25    1
    24    25    26    1
    25     6     1   ar
    26    25    21    1
    27    14     7    1
    28    14    12    1
    29     9    15    1
@<TRIPOS>MOLECULE
*****
 26 29 0 0 0
SMALL
GASTEIGER

@<TRIPOS>ATOM
      1 C         140.6214  143.0553  162.7441 C.ar    1  UNL1        0.1386
      2 C         140.6406  141.5740  162.9796 C.ar    1  UNL1        0.0369
      3 C         140.4293  141.0315  164.3620 C.ar    1  UNL1        0.0043
      4 C         140.1987  141.9703  165.5089 C.ar    1  UNL1        0.0152
      5 C         140.1794  143.4516  165.2735 C.ar    1  UNL1        0.0043
      6 C         140.3908  143.9941  163.8911 C.ar    1  UNL1        0.0369
      7 C         139.9873  141.4279  166.8913 C.2     1  UNL1        0.0763
      8 N         139.3064  140.1050  167.0819 N.2     1  UNL1       -0.1836
      9 N         139.0951  139.5625  168.4643 N.am    1  UNL1       -0.2062
     10 C         139.5646  140.3429  169.6561 C.2     1  UNL1        0.2410
     11 O         139.3533  139.8004  171.0385 O.2     1  UNL1       -0.2734
     12 C         140.2455  141.6658  169.4656 C.3     1  UNL1        0.0841
     13 C         140.9264  142.9887  169.2750 C.3     1  UNL1        0.0160
     14 C         140.4569  142.2083  168.0832 C.3     1  UNL1        0.0509
     15 H         138.6482  138.6942  168.5894 H       1  UNL1        0.1772
     16 O         140.8327  143.5978  161.3617 O.3     1  UNL1       -0.4754
     17 C         142.1812  144.1155  160.9572 C.3     1  UNL1        0.2067
     18 C         143.4018  142.1474  159.7796 C.3     1  UNL1        0.0053
     19 C         143.3487  143.1779  160.8683 C.3     1  UNL1        0.0597
     20 C         144.4631  143.2709  161.8679 C.3     1  UNL1        0.0757
     21 N         144.2307  142.8571  163.2909 N.3     1  UNL1       -0.2738
     22 C         144.0056  143.7800  164.4519 C.3     1  UNL1        0.0721
     23 C         143.8184  142.9410  165.6812 C.3     1  UNL1        0.0187
     24 C         143.9277  141.4998  165.2800 C.3     1  UNL1        0.0174
     25 C         144.1826  141.4480  163.8027 C.3     1  UNL1        0.0576
     26 C         144.3584  140.2052  162.9814 C.3     1  UNL1        0.0173
@<TRIPOS>BOND
     1    19    18    1
     2    19    17    1
     3    17    16    1
     4    16     1    1
     5     1     2   ar
     6     2     3   ar
     7     3     4   ar
     8     4     7    1
     9     7     8    2
    10     8     9    1
    11     9    10   am
    12    10    11    2
    13    10    12    1
    14    12    13    1
    15    13    14    1
    16     4     5   ar
    17     5     6   ar
    18    19    20    1
    19    20    21    1
    20    21    22    1
    21    22    23    1
    22    23    24    1
    23    24    25    1
    24    25    26    1
    25     6     1   ar
    26    25    21    1
    27    14     7    1
    28    14    12    1
    29     9    15    1
