@<TRIPOS>MOLECULE
*****
 27 29 0 0 0
SMALL
GASTEIGER

@<TRIPOS>ATOM
      1 C         138.7716  139.3372  165.9494 C.ar    1  UNL1        0.1582
      2 C         140.1534  139.6824  166.4202 C.ar    1  UNL1        0.0576
      3 C         140.7217  141.0429  166.1445 C.ar    1  UNL1        0.1365
      4 N         139.9083  142.0583  165.3980 N.ar    1  UNL1       -0.1988
      5 C         138.5266  141.7131  164.9272 C.ar    1  UNL1        0.2182
      6 N         137.9582  140.3526  165.2029 N.ar    1  UNL1       -0.2098
      7 F         137.6350  136.6162  166.5009 F       1  UNL1       -0.1644
      8 C         138.2033  137.9767  166.2252 C.3     1  UNL1        0.4350
      9 F         139.1945  137.3704  165.2765 F       1  UNL1       -0.1644
     10 F         137.2121  138.5830  167.1738 F       1  UNL1       -0.1644
     11 N         142.1035  141.3879  166.6153 N.pl3   1  UNL1       -0.2978
     12 H         142.2525  141.6537  167.5515 H       1  UNL1        0.1536
     13 C         143.2582  141.3281  165.6597 C.ar    1  UNL1        0.0494
     14 C         143.9524  142.5906  165.2422 C.ar    1  UNL1        0.0146
     15 C         145.1071  142.5308  164.2867 C.ar    1  UNL1        0.0013
     16 C         145.5675  141.2085  163.7486 C.ar    1  UNL1        0.0001
     17 C         144.8733  139.9461  164.1661 C.ar    1  UNL1        0.0013
     18 C         143.7187  140.0059  165.1216 C.ar    1  UNL1        0.0146
     19 N         137.7131  142.7286  164.1806 N.pl3   1  UNL1       -0.2978
     20 H         137.1617  143.3774  164.6749 H       1  UNL1        0.1500
     21 C         137.7397  142.7553  162.6812 C.3     1  UNL1        0.1359
     22 C         138.6558  143.7022  161.9640 C.ar    1  UNL1        0.0788
     23 C         139.1151  144.9591  162.6416 C.ar    1  UNL1        0.0165
     24 C         140.0312  145.9059  161.9245 C.ar    1  UNL1        0.0029
     25 C         140.4880  145.5958  160.5298 C.ar    1  UNL1        0.0207
     26 C         140.0286  144.3390  159.8522 C.ar    1  UNL1        0.0985
     27 N         139.1126  143.3921  160.5693 N.ar    1  UNL1       -0.2464
@<TRIPOS>BOND
     1     7     8    1
     2     8     9    1
     3     8    10    1
     4     8     1    1
     5     1     2   ar
     6     2     3   ar
     7     3    11    1
     8    11    13    1
     9    13    14   ar
    10    14    15   ar
    11    15    16   ar
    12    16    17   ar
    13    17    18   ar
    14     3     4   ar
    15     4     5   ar
    16     5    19    1
    17    19    21    1
    18    21    22    1
    19    22    23   ar
    20    23    24   ar
    21    24    25   ar
    22    25    26   ar
    23    26    27   ar
    24     5     6   ar
    25     6     1   ar
    26    18    13   ar
    27    27    22   ar
    28    11    12    1
    29    19    20    1
@<TRIPOS>MOLECULE
*****
 27 29 0 0 0
SMALL
GASTEIGER

@<TRIPOS>ATOM
      1 C         138.9289  138.9880  165.5429 C.ar    1  UNL1        0.1582
      2 C         139.1473  140.2757  166.2807 C.ar    1  UNL1        0.0576
      3 C         139.9004  141.3962  165.6270 C.ar    1  UNL1        0.1365
      4 N         140.4352  141.2291  164.2356 N.ar    1  UNL1       -0.1988
      5 C         140.2169  139.9415  163.4979 C.ar    1  UNL1        0.2182
      6 N         139.4637  138.8210  164.1515 N.ar    1  UNL1       -0.2098
      7 F         137.4227  136.7470  166.8502 F       1  UNL1       -0.1644
      8 C         138.1758  137.8675  166.1965 C.3     1  UNL1        0.4350
      9 F         138.9458  136.8731  165.3791 F       1  UNL1       -0.1644
     10 F         137.4058  138.8619  167.0140 F       1  UNL1       -0.1644
     11 N         140.1187  142.6839  166.3649 N.pl3   1  UNL1       -0.2978
     12 H         139.6925  143.5121  166.0462 H       1  UNL1        0.1536
     13 C         140.9863  142.7095  167.5882 C.ar    1  UNL1        0.0494
     14 C         140.4374  143.2227  168.8864 C.ar    1  UNL1        0.0146
     15 C         141.3050  143.2483  170.1098 C.ar    1  UNL1        0.0013
     16 C         142.7216  142.7607  170.0349 C.ar    1  UNL1        0.0001
     17 C         143.2705  142.2475  168.7367 C.ar    1  UNL1        0.0013
     18 C         142.4029  142.2219  167.5134 C.ar    1  UNL1        0.0146
     19 N         140.7517  139.7743  162.1064 N.pl3   1  UNL1       -0.2978
     20 H         140.1931  140.0148  161.3322 H       1  UNL1        0.1500
     21 C         142.1375  139.2408  161.8946 C.3     1  UNL1        0.1359
     22 C         143.3192  139.9833  162.4445 C.ar    1  UNL1        0.0788
     23 C         144.0382  139.4597  163.6523 C.ar    1  UNL1        0.0165
     24 C         145.2198  140.2022  164.2022 C.ar    1  UNL1        0.0029
     25 C         145.6826  141.4682  163.5441 C.ar    1  UNL1        0.0207
     26 C         144.9636  141.9918  162.3363 C.ar    1  UNL1        0.0985
     27 N         143.7819  141.2493  161.7865 N.ar    1  UNL1       -0.2464
@<TRIPOS>BOND
     1     7     8    1
     2     8     9    1
     3     8    10    1
     4     8     1    1
     5     1     2   ar
     6     2     3   ar
     7     3    11    1
     8    11    13    1
     9    13    14   ar
    10    14    15   ar
    11    15    16   ar
    12    16    17   ar
    13    17    18   ar
    14     3     4   ar
    15     4     5   ar
    16     5    19    1
    17    19    21    1
    18    21    22    1
    19    22    23   ar
    20    23    24   ar
    21    24    25   ar
    22    25    26   ar
    23    26    27   ar
    24     5     6   ar
    25     6     1   ar
    26    18    13   ar
    27    27    22   ar
    28    11    12    1
    29    19    20    1
@<TRIPOS>MOLECULE
*****
 27 29 0 0 0
SMALL
GASTEIGER

@<TRIPOS>ATOM
      1 C         138.6550  142.5367  164.6216 C.ar    1  UNL1        0.1582
      2 C         140.0443  142.8235  165.1089 C.ar    1  UNL1        0.0576
      3 C         140.7807  141.7995  165.9207 C.ar    1  UNL1        0.1365
      4 N         140.1279  140.4887  166.2452 N.ar    1  UNL1       -0.1988
      5 C         138.7386  140.2018  165.7580 C.ar    1  UNL1        0.2182
      6 N         138.0021  141.2258  164.9461 N.ar    1  UNL1       -0.2098
      7 F         137.1821  144.5847  162.9979 F       1  UNL1       -0.1644
      8 C         137.9185  143.5607  163.8098 C.3     1  UNL1        0.4350
      9 F         137.1435  142.4681  163.1347 F       1  UNL1       -0.1644
     10 F         138.6935  144.6532  164.4848 F       1  UNL1       -0.1644
     11 N         142.1701  142.0865  166.4080 N.pl3   1  UNL1       -0.2978
     12 H         142.3074  142.4814  167.2993 H       1  UNL1        0.1536
     13 C         143.3502  141.7717  165.5373 C.ar    1  UNL1        0.0494
     14 C         143.6324  140.3527  165.1407 C.ar    1  UNL1        0.0146
     15 C         144.8125  140.0379  164.2700 C.ar    1  UNL1        0.0013
     16 C         145.7105  141.1420  163.7958 C.ar    1  UNL1        0.0001
     17 C         145.4282  142.5608  164.1923 C.ar    1  UNL1        0.0013
     18 C         144.2481  142.8756  165.0630 C.ar    1  UNL1        0.0146
     19 N         138.0856  138.8909  166.0825 N.pl3   1  UNL1       -0.2978
     20 H         137.3408  138.8578  166.7254 H       1  UNL1        0.1500
     21 C         138.5676  137.6305  165.4275 C.3     1  UNL1        0.1359
     22 C         139.4424  137.7045  164.2112 C.ar    1  UNL1        0.0788
     23 C         140.9266  137.5329  164.3433 C.ar    1  UNL1        0.0165
     24 C         141.8014  137.6069  163.1271 C.ar    1  UNL1        0.0029
     25 C         141.1919  137.8525  161.7787 C.ar    1  UNL1        0.0207
     26 C         139.7076  138.0241  161.6466 C.ar    1  UNL1        0.0985
     27 N         138.8329  137.9501  162.8628 N.ar    1  UNL1       -0.2464
@<TRIPOS>BOND
     1     7     8    1
     2     8     9    1
     3     8    10    1
     4     8     1    1
     5     1     2   ar
     6     2     3   ar
     7     3    11    1
     8    11    13    1
     9    13    14   ar
    10    14    15   ar
    11    15    16   ar
    12    16    17   ar
    13    17    18   ar
    14     3     4   ar
    15     4     5   ar
    16     5    19    1
    17    19    21    1
    18    21    22    1
    19    22    23   ar
    20    23    24   ar
    21    24    25   ar
    22    25    26   ar
    23    26    27   ar
    24     5     6   ar
    25     6     1   ar
    26    18    13   ar
    27    27    22   ar
    28    11    12    1
    29    19    20    1
@<TRIPOS>MOLECULE
*****
 27 29 0 0 0
SMALL
GASTEIGER

@<TRIPOS>ATOM
      1 C         138.8435  138.7927  165.6457 C.ar    1  UNL1        0.1582
      2 C         139.0228  140.2267  166.0475 C.ar    1  UNL1        0.0576
      3 C         139.8975  141.1308  165.2305 C.ar    1  UNL1        0.1365
      4 N         140.5928  140.6009  164.0116 N.ar    1  UNL1       -0.1988
      5 C         140.4135  139.1670  163.6098 C.ar    1  UNL1        0.2182
      6 N         139.5388  138.2629  164.4268 N.ar    1  UNL1       -0.2098
      7 F         137.0942  136.9845  167.2798 F       1  UNL1       -0.1644
      8 C         137.9688  137.8886  166.4627 C.3     1  UNL1        0.4350
      9 F         138.3961  136.7192  165.6261 F       1  UNL1       -0.1644
     10 F         137.5416  139.0580  167.2994 F       1  UNL1       -0.1644
     11 N         140.0768  142.5648  165.6324 N.pl3   1  UNL1       -0.2978
     12 H         139.4571  142.9765  166.2772 H       1  UNL1        0.1536
     13 C         141.2003  143.3715  165.0519 C.ar    1  UNL1        0.0494
     14 C         142.6214  143.0285  165.3878 C.ar    1  UNL1        0.0146
     15 C         143.7450  143.8352  164.8073 C.ar    1  UNL1        0.0013
     16 C         143.4473  144.9849  163.8910 C.ar    1  UNL1        0.0001
     17 C         142.0262  145.3279  163.5551 C.ar    1  UNL1        0.0013
     18 C         140.9027  144.5212  164.1356 C.ar    1  UNL1        0.0146
     19 N         141.1088  138.6371  162.3908 N.pl3   1  UNL1       -0.2978
     20 H         140.6054  138.5058  161.5550 H       1  UNL1        0.1500
     21 C         142.5710  138.3071  162.4454 C.3     1  UNL1        0.1359
     22 C         143.5778  139.3962  162.6697 C.ar    1  UNL1        0.0788
     23 C         144.3994  139.4113  163.9246 C.ar    1  UNL1        0.0165
     24 C         145.4061  140.5004  164.1488 C.ar    1  UNL1        0.0029
     25 C         145.5913  141.5744  163.1181 C.ar    1  UNL1        0.0207
     26 C         144.7697  141.5593  161.8633 C.ar    1  UNL1        0.0985
     27 N         143.7630  140.4702  161.6390 N.ar    1  UNL1       -0.2464
@<TRIPOS>BOND
     1     7     8    1
     2     8     9    1
     3     8    10    1
     4     8     1    1
     5     1     2   ar
     6     2     3   ar
     7     3    11    1
     8    11    13    1
     9    13    14   ar
    10    14    15   ar
    11    15    16   ar
    12    16    17   ar
    13    17    18   ar
    14     3     4   ar
    15     4     5   ar
    16     5    19    1
    17    19    21    1
    18    21    22    1
    19    22    23   ar
    20    23    24   ar
    21    24    25   ar
    22    25    26   ar
    23    26    27   ar
    24     5     6   ar
    25     6     1   ar
    26    18    13   ar
    27    27    22   ar
    28    11    12    1
    29    19    20    1
@<TRIPOS>MOLECULE
*****
 27 29 0 0 0
SMALL
GASTEIGER

@<TRIPOS>ATOM
      1 C         138.9665  143.4323  163.8944 C.ar    1  UNL1        0.1582
      2 C         140.3670  143.4365  163.3572 C.ar    1  UNL1        0.0576
      3 C         140.7699  142.4458  162.3055 C.ar    1  UNL1        0.1365
      4 N         139.7723  141.4508  161.7910 N.ar    1  UNL1       -0.1988
      5 C         138.3718  141.4465  162.3282 C.ar    1  UNL1        0.2182
      6 N         137.9689  142.4373  163.3798 N.ar    1  UNL1       -0.2098
      7 F         138.1607  145.4138  165.9977 F       1  UNL1       -0.1644
      8 C         138.5636  144.4231  164.9461 C.3     1  UNL1        0.4350
      9 F         137.1759  143.8537  164.9509 F       1  UNL1       -0.1644
     10 F         139.9513  144.9925  164.9412 F       1  UNL1       -0.1644
     11 N         142.1704  142.4500  161.7683 N.pl3   1  UNL1       -0.2978
     12 H         142.3655  142.8828  160.9058 H       1  UNL1        0.1536
     13 C         143.2737  141.7949  162.5453 C.ar    1  UNL1        0.0494
     14 C         144.6253  142.4413  162.6191 C.ar    1  UNL1        0.0146
     15 C         145.7285  141.7862  163.3961 C.ar    1  UNL1        0.0013
     16 C         145.4801  140.4847  164.0993 C.ar    1  UNL1        0.0001
     17 C         144.1286  139.8384  164.0255 C.ar    1  UNL1        0.0013
     18 C         143.0253  140.4935  163.2485 C.ar    1  UNL1        0.0146
     19 N         137.3741  140.4515  161.8136 N.pl3   1  UNL1       -0.2978
     20 H         136.4999  140.7582  161.4806 H       1  UNL1        0.1500
     21 C         137.7085  138.9893  161.8065 C.3     1  UNL1        0.1359
     22 C         138.7594  138.4557  162.7344 C.ar    1  UNL1        0.0788
     23 C         140.0307  137.8854  162.1790 C.ar    1  UNL1        0.0165
     24 C         141.0815  137.3518  163.1069 C.ar    1  UNL1        0.0029
     25 C         140.8610  137.3885  164.5902 C.ar    1  UNL1        0.0207
     26 C         139.5897  137.9588  165.1455 C.ar    1  UNL1        0.0985
     27 N         138.5389  138.4924  164.2177 N.ar    1  UNL1       -0.2464
@<TRIPOS>BOND
     1     7     8    1
     2     8     9    1
     3     8    10    1
     4     8     1    1
     5     1     2   ar
     6     2     3   ar
     7     3    11    1
     8    11    13    1
     9    13    14   ar
    10    14    15   ar
    11    15    16   ar
    12    16    17   ar
    13    17    18   ar
    14     3     4   ar
    15     4     5   ar
    16     5    19    1
    17    19    21    1
    18    21    22    1
    19    22    23   ar
    20    23    24   ar
    21    24    25   ar
    22    25    26   ar
    23    26    27   ar
    24     5     6   ar
    25     6     1   ar
    26    18    13   ar
    27    27    22   ar
    28    11    12    1
    29    19    20    1
@<TRIPOS>MOLECULE
*****
 27 29 0 0 0
SMALL
GASTEIGER

@<TRIPOS>ATOM
      1 C         138.5682  139.2809  165.6906 C.ar    1  UNL1        0.1582
      2 C         139.8660  139.8640  166.1656 C.ar    1  UNL1        0.0576
      3 C         140.3507  141.1693  165.6075 C.ar    1  UNL1        0.1365
      4 N         139.5374  141.8914  164.5745 N.ar    1  UNL1       -0.1988
      5 C         138.2396  141.3084  164.0996 C.ar    1  UNL1        0.2182
      6 N         137.7550  140.0031  164.6577 N.ar    1  UNL1       -0.2098
      7 F         137.5989  136.6704  166.8068 F       1  UNL1       -0.1644
      8 C         138.0836  137.9757  166.2487 C.3     1  UNL1        0.4350
      9 F         137.4023  138.7068  167.3673 F       1  UNL1       -0.1644
     10 F         138.7648  137.2445  165.1301 F       1  UNL1       -0.1644
     11 N         141.6486  141.7523  166.0825 N.pl3   1  UNL1       -0.2978
     12 H         142.4103  141.8276  165.4633 H       1  UNL1        0.1536
     13 C         141.7858  142.2207  167.5009 C.ar    1  UNL1        0.0494
     14 C         140.6282  142.8830  168.1873 C.ar    1  UNL1        0.0146
     15 C         140.7655  143.3514  169.6057 C.ar    1  UNL1        0.0013
     16 C         142.0604  143.1576  170.3376 C.ar    1  UNL1        0.0001
     17 C         143.2180  142.4953  169.6511 C.ar    1  UNL1        0.0013
     18 C         143.0807  142.0269  168.2327 C.ar    1  UNL1        0.0146
     19 N         137.4263  142.0305  163.0666 N.pl3   1  UNL1       -0.2978
     20 H         136.5553  142.4198  163.3096 H       1  UNL1        0.1500
     21 C         137.9401  142.1596  161.6633 C.3     1  UNL1        0.1359
     22 C         138.9047  143.2545  161.3154 C.ar    1  UNL1        0.0788
     23 C         139.9203  143.0432  160.2320 C.ar    1  UNL1        0.0165
     24 C         140.8847  144.1381  159.8842 C.ar    1  UNL1        0.0029
     25 C         140.8337  145.4443  160.6199 C.ar    1  UNL1        0.0207
     26 C         139.8181  145.6556  161.7033 C.ar    1  UNL1        0.0985
     27 N         138.8536  144.5607  162.0511 N.ar    1  UNL1       -0.2464
@<TRIPOS>BOND
     1     7     8    1
     2     8     9    1
     3     8    10    1
     4     8     1    1
     5     1     2   ar
     6     2     3   ar
     7     3    11    1
     8    11    13    1
     9    13    14   ar
    10    14    15   ar
    11    15    16   ar
    12    16    17   ar
    13    17    18   ar
    14     3     4   ar
    15     4     5   ar
    16     5    19    1
    17    19    21    1
    18    21    22    1
    19    22    23   ar
    20    23    24   ar
    21    24    25   ar
    22    25    26   ar
    23    26    27   ar
    24     5     6   ar
    25     6     1   ar
    26    18    13   ar
    27    27    22   ar
    28    11    12    1
    29    19    20    1
@<TRIPOS>MOLECULE
*****
 27 29 0 0 0
SMALL
GASTEIGER

@<TRIPOS>ATOM
      1 C         138.9418  138.6694  165.2089 C.ar    1  UNL1        0.1582
      2 C         140.4263  138.5954  165.4107 C.ar    1  UNL1        0.0576
      3 C         141.3542  139.0884  164.3402 C.ar    1  UNL1        0.1365
      4 N         140.7977  139.6555  163.0680 N.ar    1  UNL1       -0.1988
      5 C         139.3132  139.7295  162.8661 C.ar    1  UNL1        0.2182
      6 N         138.3852  139.2365  163.9366 N.ar    1  UNL1       -0.2098
      7 F         137.0859  137.6834  167.3497 F       1  UNL1       -0.1644
      8 C         138.0138  138.1764  166.2793 C.3     1  UNL1        0.4350
      9 F         137.7446  139.5915  166.6976 F       1  UNL1       -0.1644
     10 F         138.2831  136.7613  165.8610 F       1  UNL1       -0.1644
     11 N         142.8388  139.0144  164.5421 N.pl3   1  UNL1       -0.2978
     12 H         143.2720  138.1436  164.6943 H       1  UNL1        0.1536
     13 C         143.6631  140.2672  164.5122 C.ar    1  UNL1        0.0494
     14 C         143.2052  141.4843  165.2599 C.ar    1  UNL1        0.0146
     15 C         144.0296  142.7372  165.2300 C.ar    1  UNL1        0.0013
     16 C         145.3118  142.7729  164.4523 C.ar    1  UNL1        0.0001
     17 C         145.7696  141.5558  163.7046 C.ar    1  UNL1        0.0013
     18 C         144.9453  140.3030  163.7346 C.ar    1  UNL1        0.0146
     19 N         138.7566  140.2965  161.5938 N.pl3   1  UNL1       -0.2978
     20 H         138.8929  139.8217  160.7422 H       1  UNL1        0.1500
     21 C         137.9923  141.5869  161.6190 C.3     1  UNL1        0.1359
     22 C         138.3807  142.6700  162.5815 C.ar    1  UNL1        0.0788
     23 C         137.5504  142.9186  163.8057 C.ar    1  UNL1        0.0165
     24 C         137.9388  144.0016  164.7680 C.ar    1  UNL1        0.0029
     25 C         139.1575  144.8360  164.5061 C.ar    1  UNL1        0.0207
     26 C         139.9877  144.5874  163.2819 C.ar    1  UNL1        0.0985
     27 N         139.5993  143.5044  162.3196 N.ar    1  UNL1       -0.2464
@<TRIPOS>BOND
     1     7     8    1
     2     8     9    1
     3     8    10    1
     4     8     1    1
     5     1     2   ar
     6     2     3   ar
     7     3    11    1
     8    11    13    1
     9    13    14   ar
    10    14    15   ar
    11    15    16   ar
    12    16    17   ar
    13    17    18   ar
    14     3     4   ar
    15     4     5   ar
    16     5    19    1
    17    19    21    1
    18    21    22    1
    19    22    23   ar
    20    23    24   ar
    21    24    25   ar
    22    25    26   ar
    23    26    27   ar
    24     5     6   ar
    25     6     1   ar
    26    18    13   ar
    27    27    22   ar
    28    11    12    1
    29    19    20    1
@<TRIPOS>MOLECULE
*****
 27 29 0 0 0
SMALL
GASTEIGER

@<TRIPOS>ATOM
      1 C         140.1683  138.6589  163.8209 C.ar    1  UNL1        0.1582
      2 C         140.2063  138.6172  165.3198 C.ar    1  UNL1        0.0576
      3 C         139.1789  139.3647  166.1172 C.ar    1  UNL1        0.1365
      4 N         138.1136  140.1539  165.4157 N.ar    1  UNL1       -0.1988
      5 C         138.0757  140.1957  163.9167 C.ar    1  UNL1        0.2182
      6 N         139.1030  139.4482  163.1194 N.ar    1  UNL1       -0.2098
      7 F         142.2230  137.1639  162.2262 F       1  UNL1       -0.1644
      8 C         141.1957  137.9114  163.0236 C.3     1  UNL1        0.4350
      9 F         141.0239  138.8817  161.8926 F       1  UNL1       -0.1644
     10 F         141.3674  136.9411  164.1545 F       1  UNL1       -0.1644
     11 N         139.2169  139.3230  167.6162 N.pl3   1  UNL1       -0.2978
     12 H         138.9920  138.4906  168.0913 H       1  UNL1        0.1536
     13 C         139.5976  140.5495  168.3912 C.ar    1  UNL1        0.0494
     14 C         140.3506  141.6585  167.7179 C.ar    1  UNL1        0.0146
     15 C         140.7313  142.8850  168.4929 C.ar    1  UNL1        0.0013
     16 C         140.3590  143.0026  169.9412 C.ar    1  UNL1        0.0001
     17 C         139.6061  141.8937  170.6145 C.ar    1  UNL1        0.0013
     18 C         139.2254  140.6671  169.8395 C.ar    1  UNL1        0.0146
     19 N         137.0103  140.9849  163.2151 N.pl3   1  UNL1       -0.2978
     20 H         136.0882  140.6422  163.1774 H       1  UNL1        0.1500
     21 C         137.3500  142.2963  162.5710 C.3     1  UNL1        0.1359
     22 C         138.4189  143.1674  163.1616 C.ar    1  UNL1        0.0788
     23 C         138.1709  143.8865  164.4544 C.ar    1  UNL1        0.0165
     24 C         139.2397  144.7576  165.0450 C.ar    1  UNL1        0.0029
     25 C         140.5564  144.9096  164.3428 C.ar    1  UNL1        0.0207
     26 C         140.8044  144.1906  163.0499 C.ar    1  UNL1        0.0985
     27 N         139.7356  143.3194  162.4594 N.ar    1  UNL1       -0.2464
@<TRIPOS>BOND
     1     7     8    1
     2     8     9    1
     3     8    10    1
     4     8     1    1
     5     1     2   ar
     6     2     3   ar
     7     3    11    1
     8    11    13    1
     9    13    14   ar
    10    14    15   ar
    11    15    16   ar
    12    16    17   ar
    13    17    18   ar
    14     3     4   ar
    15     4     5   ar
    16     5    19    1
    17    19    21    1
    18    21    22    1
    19    22    23   ar
    20    23    24   ar
    21    24    25   ar
    22    25    26   ar
    23    26    27   ar
    24     5     6   ar
    25     6     1   ar
    26    18    13   ar
    27    27    22   ar
    28    11    12    1
    29    19    20    1
@<TRIPOS>MOLECULE
*****
 27 29 0 0 0
SMALL
GASTEIGER

@<TRIPOS>ATOM
      1 C         143.6591  142.9495  163.9931 C.ar    1  UNL1        0.1582
      2 C         142.9000  142.3821  165.1556 C.ar    1  UNL1        0.0576
      3 C         141.5897  142.9878  165.5635 C.ar    1  UNL1        0.1365
      4 N         141.0386  144.1611  164.8088 N.ar    1  UNL1       -0.1988
      5 C         141.7977  144.7286  163.6462 C.ar    1  UNL1        0.2182
      6 N         143.1079  144.1228  163.2383 N.ar    1  UNL1       -0.2098
      7 F         146.2795  141.7380  163.1773 F       1  UNL1       -0.1644
      8 C         144.9693  142.3438  163.5852 C.3     1  UNL1        0.4350
      9 F         144.8752  141.3730  164.7248 F       1  UNL1       -0.1644
     10 F         145.0634  143.3146  162.4456 F       1  UNL1       -0.1644
     11 N         140.8306  142.4203  166.7262 N.pl3   1  UNL1       -0.2978
     12 H         140.9419  142.8091  167.6238 H       1  UNL1        0.1536
     13 C         139.9019  141.2603  166.5212 C.ar    1  UNL1        0.0494
     14 C         139.5468  140.3707  167.6757 C.ar    1  UNL1        0.0146
     15 C         138.6182  139.2108  167.4707 C.ar    1  UNL1        0.0013
     16 C         138.0446  138.9404  166.1112 C.ar    1  UNL1        0.0001
     17 C         138.3997  139.8299  164.9569 C.ar    1  UNL1        0.0013
     18 C         139.3284  140.9899  165.1619 C.ar    1  UNL1        0.0146
     19 N         141.2466  145.9019  162.8914 N.pl3   1  UNL1       -0.2978
     20 H         141.7708  146.7324  162.8213 H       1  UNL1        0.1500
     21 C         139.8970  145.8100  162.2434 C.3     1  UNL1        0.1359
     22 C         139.3326  144.4705  161.8728 C.ar    1  UNL1        0.0788
     23 C         138.2686  143.8434  162.7240 C.ar    1  UNL1        0.0165
     24 C         137.7043  142.5039  162.3534 C.ar    1  UNL1        0.0029
     25 C         138.2040  141.7916  161.1316 C.ar    1  UNL1        0.0207
     26 C         139.2680  142.4187  160.2803 C.ar    1  UNL1        0.0985
     27 N         139.8323  143.7581  160.6509 N.ar    1  UNL1       -0.2464
@<TRIPOS>BOND
     1     7     8    1
     2     8     9    1
     3     8    10    1
     4     8     1    1
     5     1     2   ar
     6     2     3   ar
     7     3    11    1
     8    11    13    1
     9    13    14   ar
    10    14    15   ar
    11    15    16   ar
    12    16    17   ar
    13    17    18   ar
    14     3     4   ar
    15     4     5   ar
    16     5    19    1
    17    19    21    1
    18    21    22    1
    19    22    23   ar
    20    23    24   ar
    21    24    25   ar
    22    25    26   ar
    23    26    27   ar
    24     5     6   ar
    25     6     1   ar
    26    18    13   ar
    27    27    22   ar
    28    11    12    1
    29    19    20    1
