@<TRIPOS>MOLECULE
*****
 33 37 0 0 0
SMALL
GASTEIGER

@<TRIPOS>ATOM
      1 N         139.9256  138.1124  162.3133 N.3     1  UNL1       -0.2695
      2 C         139.9006  137.9197  163.8008 C.3     1  UNL1        0.0939
      3 C         141.1413  138.1593  164.6090 C.3     1  UNL1        0.1107
      4 N         142.4069  138.5915  163.9300 N.am    1  UNL1       -0.2764
      5 C         143.6477  138.8311  164.7383 C.2     1  UNL1        0.2301
      6 O         144.9133  139.2634  164.0592 O.2     1  UNL1       -0.2745
      7 C         142.4320  138.7843  162.4426 C.3     1  UNL1        0.1107
      8 C         141.1914  138.5447  161.6343 C.3     1  UNL1        0.0939
      9 C         138.6850  137.8729  161.5050 C.3     1  UNL1        0.0769
     10 C         137.5650  138.8701  161.5368 C.3     1  UNL1        0.0436
     11 C         139.3376  143.4157  159.7489 C.3     1  UNL1        0.0312
     12 C         138.7481  142.5973  160.8592 C.ar    1  UNL1       -0.0161
     13 C         138.4513  141.1429  160.6429 C.ar    1  UNL1       -0.0083
     14 C         137.8618  140.3246  161.7531 C.ar    1  UNL1       -0.0213
     15 C         137.5690  140.9604  163.0797 C.ar    1  UNL1       -0.0047
     16 C         137.8658  142.4148  163.2960 C.ar    1  UNL1        0.0269
     17 C         138.4553  143.2332  162.1858 C.ar    1  UNL1        0.0712
     18 C         138.6397  144.6339  162.6899 C.2     1  UNL1        0.3410
     19 O         139.2011  145.7852  161.9092 O.2     1  UNL1       -0.2449
     20 O         138.1641  144.6811  164.1117 O.3     1  UNL1       -0.4404
     21 C         137.6858  143.3096  164.4864 C.3     1  UNL1        0.2356
     22 C         143.6226  138.6384  166.2256 C.3     1  UNL1        0.1116
     23 C         142.8561  139.5927  167.0927 C.ar    1  UNL1       -0.0130
     24 C         142.5950  140.9920  166.6193 C.ar    1  UNL1       -0.0022
     25 C         141.8284  141.9463  167.4865 C.ar    1  UNL1        0.0190
     26 C         141.3232  141.5013  168.8268 C.ar    1  UNL1        0.0862
     27 C         141.5844  140.1021  169.3002 C.ar    1  UNL1        0.0190
     28 C         142.3508  139.1478  168.4331 C.ar    1  UNL1       -0.0022
     29 N         140.5567  142.4556  169.6940 N.ar    1  UNL1       -0.1886
     30 C         140.5580  143.9508  169.5750 C.ar    1  UNL1        0.2258
     31 N         139.6565  144.5014  170.6399 N.ar    1  UNL1       -0.1045
     32 N         139.0978  143.3464  171.4170 N.ar    1  UNL1       -0.0222
     33 N         139.6542  142.0820  170.8324 N.ar    1  UNL1       -0.0385
@<TRIPOS>BOND
     1    11    12    1
     2    12    13   ar
     3    13    14   ar
     4    14    10    1
     5    10     9    1
     6     9     1    1
     7     1     2    1
     8     2     3    1
     9     3     4    1
    10     4     5   am
    11     5     6    2
    12     5    22    1
    13    22    23    1
    14    23    24   ar
    15    24    25   ar
    16    25    26   ar
    17    26    29    1
    18    29    30   ar
    19    30    31   ar
    20    31    32   ar
    21    32    33   ar
    22    26    27   ar
    23    27    28   ar
    24     4     7    1
    25     7     8    1
    26    14    15   ar
    27    15    16   ar
    28    16    17   ar
    29    17    18    1
    30    18    19    2
    31    18    20    1
    32    20    21    1
    33    17    12   ar
    34     8     1    1
    35    21    16    1
    36    28    23   ar
    37    33    29   ar
@<TRIPOS>MOLECULE
*****
 33 37 0 0 0
SMALL
GASTEIGER

@<TRIPOS>ATOM
      1 N         138.5618  140.3041  159.9523 N.3     1  UNL1       -0.2695
      2 C         137.7155  140.2824  161.1906 C.3     1  UNL1        0.0939
      3 C         138.1033  139.4115  162.3487 C.3     1  UNL1        0.1107
      4 N         139.3371  138.5624  162.2686 N.am    1  UNL1       -0.2764
      5 C         139.7248  137.6915  163.4268 C.2     1  UNL1        0.2301
      6 O         140.9586  136.8424  163.3466 O.2     1  UNL1       -0.2745
      7 C         140.1833  138.5841  161.0303 C.3     1  UNL1        0.1107
      8 C         139.7957  139.4549  159.8721 C.3     1  UNL1        0.0939
      9 C         138.1742  141.1749  158.7941 C.3     1  UNL1        0.0769
     10 C         138.6673  142.5897  158.7215 C.3     1  UNL1        0.0436
     11 C         143.7491  142.9400  159.7482 C.3     1  UNL1        0.0312
     12 C         142.3248  143.2166  160.1289 C.ar    1  UNL1       -0.0161
     13 C         141.2081  142.7648  159.2349 C.ar    1  UNL1       -0.0083
     14 C         139.7839  143.0415  159.6155 C.ar    1  UNL1       -0.0213
     15 C         139.4761  143.7699  160.8901 C.ar    1  UNL1       -0.0047
     16 C         140.5927  144.2217  161.7841 C.ar    1  UNL1        0.0269
     17 C         142.0170  143.9451  161.4035 C.ar    1  UNL1        0.0712
     18 C         142.9012  144.5077  162.4766 C.2     1  UNL1        0.3410
     19 O         144.4001  144.4551  162.5015 O.2     1  UNL1       -0.2449
     20 O         142.0234  145.1320  163.5204 O.3     1  UNL1       -0.4404
     21 C         140.5966  144.9553  163.0924 C.3     1  UNL1        0.2356
     22 C         138.8785  137.6699  164.6651 C.3     1  UNL1        0.1116
     23 C         139.2221  138.5582  165.8238 C.ar    1  UNL1       -0.0130
     24 C         140.5638  139.2263  165.8848 C.ar    1  UNL1       -0.0022
     25 C         140.9073  140.1147  167.0437 C.ar    1  UNL1        0.0190
     26 C         139.9091  140.3350  168.1414 C.ar    1  UNL1        0.0862
     27 C         138.5675  139.6670  168.0804 C.ar    1  UNL1        0.0190
     28 C         138.2239  138.7786  166.9217 C.ar    1  UNL1       -0.0022
     29 N         140.2526  141.2234  169.3002 N.ar    1  UNL1       -0.1886
     30 C         140.9487  142.5496  169.2186 C.ar    1  UNL1        0.2258
     31 N         141.0865  143.0873  170.6121 N.ar    1  UNL1       -0.1045
     32 N         140.4756  142.0935  171.5550 N.ar    1  UNL1       -0.0222
     33 N         139.9602  140.9415  170.7442 N.ar    1  UNL1       -0.0385
@<TRIPOS>BOND
     1    11    12    1
     2    12    13   ar
     3    13    14   ar
     4    14    10    1
     5    10     9    1
     6     9     1    1
     7     1     2    1
     8     2     3    1
     9     3     4    1
    10     4     5   am
    11     5     6    2
    12     5    22    1
    13    22    23    1
    14    23    24   ar
    15    24    25   ar
    16    25    26   ar
    17    26    29    1
    18    29    30   ar
    19    30    31   ar
    20    31    32   ar
    21    32    33   ar
    22    26    27   ar
    23    27    28   ar
    24     4     7    1
    25     7     8    1
    26    14    15   ar
    27    15    16   ar
    28    16    17   ar
    29    17    18    1
    30    18    19    2
    31    18    20    1
    32    20    21    1
    33    17    12   ar
    34     8     1    1
    35    21    16    1
    36    28    23   ar
    37    33    29   ar
@<TRIPOS>MOLECULE
*****
 33 37 0 0 0
SMALL
GASTEIGER

@<TRIPOS>ATOM
      1 N         140.7067  140.9785  160.0973 N.3     1  UNL1       -0.2695
      2 C         139.6037  141.1647  161.0967 C.3     1  UNL1        0.0939
      3 C         139.3604  140.1226  162.1478 C.3     1  UNL1        0.1107
      4 N         140.2199  138.8945  162.1996 N.am    1  UNL1       -0.2764
      5 C         139.9766  137.8524  163.2508 C.2     1  UNL1        0.2301
      6 O         140.8361  136.6243  163.3026 O.2     1  UNL1       -0.2745
      7 C         141.3229  138.7083  161.2003 C.3     1  UNL1        0.1107
      8 C         141.5663  139.7503  160.1491 C.3     1  UNL1        0.0939
      9 C         140.9502  142.0205  159.0461 C.3     1  UNL1        0.0769
     10 C         141.9356  143.1232  159.2971 C.3     1  UNL1        0.0436
     11 C         142.3699  145.4317  163.9321 C.3     1  UNL1        0.0312
     12 C         142.8250  144.3927  162.9506 C.ar    1  UNL1       -0.0161
     13 C         142.1528  144.2774  161.6146 C.ar    1  UNL1       -0.0083
     14 C         142.6078  143.2384  160.6332 C.ar    1  UNL1       -0.0213
     15 C         143.7352  142.3146  160.9876 C.ar    1  UNL1       -0.0047
     16 C         144.4074  142.4298  162.3236 C.ar    1  UNL1        0.0269
     17 C         143.9523  143.4688  163.3051 C.ar    1  UNL1        0.0712
     18 C         144.7998  143.3459  164.5366 C.2     1  UNL1        0.3410
     19 O         144.6881  144.1898  165.7717 O.2     1  UNL1       -0.2449
     20 O         145.7787  142.2309  164.3162 O.3     1  UNL1       -0.4404
     21 C         145.5362  141.6647  162.9485 C.3     1  UNL1        0.2356
     22 C         138.8736  138.0386  164.2502 C.3     1  UNL1        0.1116
     23 C         139.1575  138.7010  165.5657 C.ar    1  UNL1       -0.0130
     24 C         138.0859  138.7795  166.6126 C.ar    1  UNL1       -0.0022
     25 C         138.3699  139.4419  167.9282 C.ar    1  UNL1        0.0190
     26 C         139.7252  140.0257  168.1969 C.ar    1  UNL1        0.0862
     27 C         140.7967  139.9471  167.1501 C.ar    1  UNL1        0.0190
     28 C         140.5128  139.2847  165.8345 C.ar    1  UNL1       -0.0022
     29 N         140.0091  140.6880  169.5125 N.ar    1  UNL1       -0.1886
     30 C         139.8926  142.1547  169.8046 C.ar    1  UNL1        0.2258
     31 N         140.2709  142.3731  171.2395 N.ar    1  UNL1       -0.1045
     32 N         140.6212  141.0413  171.8343 N.ar    1  UNL1       -0.0222
     33 N         140.4594  139.9999  170.7670 N.ar    1  UNL1       -0.0385
@<TRIPOS>BOND
     1    11    12    1
     2    12    13   ar
     3    13    14   ar
     4    14    10    1
     5    10     9    1
     6     9     1    1
     7     1     2    1
     8     2     3    1
     9     3     4    1
    10     4     5   am
    11     5     6    2
    12     5    22    1
    13    22    23    1
    14    23    24   ar
    15    24    25   ar
    16    25    26   ar
    17    26    29    1
    18    29    30   ar
    19    30    31   ar
    20    31    32   ar
    21    32    33   ar
    22    26    27   ar
    23    27    28   ar
    24     4     7    1
    25     7     8    1
    26    14    15   ar
    27    15    16   ar
    28    16    17   ar
    29    17    18    1
    30    18    19    2
    31    18    20    1
    32    20    21    1
    33    17    12   ar
    34     8     1    1
    35    21    16    1
    36    28    23   ar
    37    33    29   ar
@<TRIPOS>MOLECULE
*****
 33 37 0 0 0
SMALL
GASTEIGER

@<TRIPOS>ATOM
      1 N         138.1247  140.0302  160.6455 N.3     1  UNL1       -0.2695
      2 C         137.6578  140.8686  161.7984 C.3     1  UNL1        0.0939
      3 C         137.8444  140.3807  163.2045 C.3     1  UNL1        0.1107
      4 N         138.4979  139.0546  163.4578 N.am    1  UNL1       -0.2764
      5 C         138.6846  138.5668  164.8640 C.2     1  UNL1        0.2301
      6 O         139.3381  137.2407  165.1173 O.2     1  UNL1       -0.2745
      7 C         138.9649  138.2162  162.3050 C.3     1  UNL1        0.1107
      8 C         138.7783  138.7040  160.8988 C.3     1  UNL1        0.0939
      9 C         137.9381  140.5179  159.2394 C.3     1  UNL1        0.0769
     10 C         138.6576  141.7478  158.7705 C.3     1  UNL1        0.0436
     11 C         141.0586  145.1973  161.8260 C.3     1  UNL1        0.0312
     12 C         141.0925  143.9374  161.0126 C.ar    1  UNL1       -0.0161
     13 C         139.8581  143.4725  160.2982 C.ar    1  UNL1       -0.0083
     14 C         139.8920  142.2127  159.4849 C.ar    1  UNL1       -0.0213
     15 C         141.1601  141.4178  159.3857 C.ar    1  UNL1       -0.0047
     16 C         142.3944  141.8826  160.1001 C.ar    1  UNL1        0.0269
     17 C         142.3607  143.1425  160.9135 C.ar    1  UNL1        0.0712
     18 C         143.7243  143.3506  161.5027 C.2     1  UNL1        0.3410
     19 O         144.1386  144.4899  162.3861 O.2     1  UNL1       -0.2449
     20 O         144.6009  142.2193  161.0534 O.3     1  UNL1       -0.4404
     21 C         143.7790  141.3121  160.1865 C.3     1  UNL1        0.2356
     22 C         138.2176  139.4052  166.0168 C.3     1  UNL1        0.1116
     23 C         139.2139  140.1534  166.8520 C.ar    1  UNL1       -0.0130
     24 C         140.1426  141.1397  166.2077 C.ar    1  UNL1       -0.0022
     25 C         141.1389  141.8880  167.0429 C.ar    1  UNL1        0.0190
     26 C         141.2065  141.6500  168.5223 C.ar    1  UNL1        0.0862
     27 C         140.2779  140.6638  169.1666 C.ar    1  UNL1        0.0190
     28 C         139.2816  139.9155  168.3314 C.ar    1  UNL1       -0.0022
     29 N         142.2028  142.3982  169.3576 N.ar    1  UNL1       -0.1886
     30 C         143.6945  142.2578  169.2876 C.ar    1  UNL1        0.2258
     31 N         144.2959  143.1910  170.2962 N.ar    1  UNL1       -0.1045
     32 N         143.1757  143.9083  170.9896 N.ar    1  UNL1       -0.0222
     33 N         141.8822  143.4183  170.4095 N.ar    1  UNL1       -0.0385
@<TRIPOS>BOND
     1    11    12    1
     2    12    13   ar
     3    13    14   ar
     4    14    10    1
     5    10     9    1
     6     9     1    1
     7     1     2    1
     8     2     3    1
     9     3     4    1
    10     4     5   am
    11     5     6    2
    12     5    22    1
    13    22    23    1
    14    23    24   ar
    15    24    25   ar
    16    25    26   ar
    17    26    29    1
    18    29    30   ar
    19    30    31   ar
    20    31    32   ar
    21    32    33   ar
    22    26    27   ar
    23    27    28   ar
    24     4     7    1
    25     7     8    1
    26    14    15   ar
    27    15    16   ar
    28    16    17   ar
    29    17    18    1
    30    18    19    2
    31    18    20    1
    32    20    21    1
    33    17    12   ar
    34     8     1    1
    35    21    16    1
    36    28    23   ar
    37    33    29   ar
@<TRIPOS>MOLECULE
*****
 33 37 0 0 0
SMALL
GASTEIGER

@<TRIPOS>ATOM
      1 N         141.8487  138.5822  160.2977 N.3     1  UNL1       -0.2695
      2 C         141.2513  138.0043  161.5464 C.3     1  UNL1        0.0939
      3 C         141.9490  138.1805  162.8625 C.3     1  UNL1        0.1107
      4 N         143.2438  138.9345  162.9300 N.am    1  UNL1       -0.2764
      5 C         143.9415  139.1107  164.2463 C.2     1  UNL1        0.2301
      6 O         145.2363  139.8647  164.3138 O.2     1  UNL1       -0.2745
      7 C         143.8412  139.5124  161.6814 C.3     1  UNL1        0.1107
      8 C         143.1436  139.3363  160.3652 C.3     1  UNL1        0.0939
      9 C         141.1511  138.4061  158.9815 C.3     1  UNL1        0.0769
     10 C         139.8977  139.1760  158.6880 C.3     1  UNL1        0.0436
     11 C         140.0823  144.2464  159.8096 C.3     1  UNL1        0.0312
     12 C         139.5950  142.8632  160.1248 C.ar    1  UNL1       -0.0161
     13 C         139.9900  141.7112  159.2489 C.ar    1  UNL1       -0.0083
     14 C         139.5028  140.3280  159.5639 C.ar    1  UNL1       -0.0213
     15 C         138.6207  140.0966  160.7549 C.ar    1  UNL1       -0.0047
     16 C         138.2258  141.2485  161.6307 C.ar    1  UNL1        0.0269
     17 C         138.7130  142.6318  161.3157 C.ar    1  UNL1        0.0712
     18 C         138.1623  143.5647  162.3532 C.2     1  UNL1        0.3410
     19 O         138.3978  145.0445  162.4223 O.2     1  UNL1       -0.2449
     20 O         137.3348  142.7580  163.3095 O.3     1  UNL1       -0.4404
     21 C         137.3741  141.3265  162.8630 C.3     1  UNL1        0.2356
     22 C         143.3441  138.5328  165.4949 C.3     1  UNL1        0.1116
     23 C         142.6707  139.4312  166.4895 C.ar    1  UNL1       -0.0130
     24 C         141.8483  140.5925  166.0148 C.ar    1  UNL1       -0.0022
     25 C         141.1748  141.4910  167.0095 C.ar    1  UNL1        0.0190
     26 C         141.3238  141.2282  168.4787 C.ar    1  UNL1        0.0862
     27 C         142.1461  140.0670  168.9534 C.ar    1  UNL1        0.0190
     28 C         142.8196  139.1685  167.9588 C.ar    1  UNL1       -0.0022
     29 N         140.6504  142.1266  169.4734 N.ar    1  UNL1       -0.1886
     30 C         140.5162  143.6167  169.3664 C.ar    1  UNL1        0.2258
     31 N         139.7758  144.1037  170.5766 N.ar    1  UNL1       -0.1045
     32 N         139.4523  142.9145  171.4316 N.ar    1  UNL1       -0.0222
     33 N         139.9928  141.6926  170.7498 N.ar    1  UNL1       -0.0385
@<TRIPOS>BOND
     1    11    12    1
     2    12    13   ar
     3    13    14   ar
     4    14    10    1
     5    10     9    1
     6     9     1    1
     7     1     2    1
     8     2     3    1
     9     3     4    1
    10     4     5   am
    11     5     6    2
    12     5    22    1
    13    22    23    1
    14    23    24   ar
    15    24    25   ar
    16    25    26   ar
    17    26    29    1
    18    29    30   ar
    19    30    31   ar
    20    31    32   ar
    21    32    33   ar
    22    26    27   ar
    23    27    28   ar
    24     4     7    1
    25     7     8    1
    26    14    15   ar
    27    15    16   ar
    28    16    17   ar
    29    17    18    1
    30    18    19    2
    31    18    20    1
    32    20    21    1
    33    17    12   ar
    34     8     1    1
    35    21    16    1
    36    28    23   ar
    37    33    29   ar
@<TRIPOS>MOLECULE
*****
 33 37 0 0 0
SMALL
GASTEIGER

@<TRIPOS>ATOM
      1 N         141.7784  140.1298  159.9472 N.3     1  UNL1       -0.2695
      2 C         140.6432  140.6266  160.7925 C.3     1  UNL1        0.0939
      3 C         140.1421  139.7975  161.9377 C.3     1  UNL1        0.1107
      4 N         140.7762  138.4717  162.2376 N.am    1  UNL1       -0.2764
      5 C         140.2751  137.6426  163.3829 C.2     1  UNL1        0.2301
      6 O         140.9092  136.3168  163.6828 O.2     1  UNL1       -0.2745
      7 C         141.9114  137.9749  161.3924 C.3     1  UNL1        0.1107
      8 C         142.4125  138.8039  160.2472 C.3     1  UNL1        0.0939
      9 C         142.2795  140.9588  158.8019 C.3     1  UNL1        0.0769
     10 C         143.3096  142.0228  159.0405 C.3     1  UNL1        0.0436
     11 C         145.8781  141.7334  163.5483 C.3     1  UNL1        0.0312
     12 C         144.8397  142.3857  162.6844 C.ar    1  UNL1       -0.0161
     13 C         144.5938  141.8782  161.2944 C.ar    1  UNL1       -0.0083
     14 C         143.5555  142.5303  160.4306 C.ar    1  UNL1       -0.0213
     15 C         142.7628  143.6901  160.9566 C.ar    1  UNL1       -0.0047
     16 C         143.0086  144.1976  162.3465 C.ar    1  UNL1        0.0269
     17 C         144.0470  143.5454  163.2105 C.ar    1  UNL1        0.0712
     18 C         144.0677  144.2594  164.5295 C.2     1  UNL1        0.3410
     19 O         144.9577  143.9366  165.6929 O.2     1  UNL1       -0.2449
     20 O         143.0420  145.3528  164.4808 O.3     1  UNL1       -0.4404
     21 C         142.3875  145.3147  163.1316 C.3     1  UNL1        0.2356
     22 C         139.1399  138.1394  164.2281 C.3     1  UNL1        0.1116
     23 C         139.4198  138.8149  165.5379 C.ar    1  UNL1       -0.0130
     24 C         140.7737  139.4032  165.8042 C.ar    1  UNL1       -0.0022
     25 C         141.0535  140.0787  167.1140 C.ar    1  UNL1        0.0190
     26 C         139.9794  140.1659  168.1573 C.ar    1  UNL1        0.0862
     27 C         138.6255  139.5777  167.8910 C.ar    1  UNL1        0.0190
     28 C         138.3457  138.9022  166.5813 C.ar    1  UNL1       -0.0022
     29 N         140.2592  140.8414  169.4671 N.ar    1  UNL1       -0.1886
     30 C         140.7968  142.2303  169.6458 C.ar    1  UNL1        0.2258
     31 N         140.9203  142.4938  171.1173 N.ar    1  UNL1       -0.1045
     32 N         140.4592  141.2677  171.8481 N.ar    1  UNL1       -0.0222
     33 N         140.0506  140.2464  170.8282 N.ar    1  UNL1       -0.0385
@<TRIPOS>BOND
     1    11    12    1
     2    12    13   ar
     3    13    14   ar
     4    14    10    1
     5    10     9    1
     6     9     1    1
     7     1     2    1
     8     2     3    1
     9     3     4    1
    10     4     5   am
    11     5     6    2
    12     5    22    1
    13    22    23    1
    14    23    24   ar
    15    24    25   ar
    16    25    26   ar
    17    26    29    1
    18    29    30   ar
    19    30    31   ar
    20    31    32   ar
    21    32    33   ar
    22    26    27   ar
    23    27    28   ar
    24     4     7    1
    25     7     8    1
    26    14    15   ar
    27    15    16   ar
    28    16    17   ar
    29    17    18    1
    30    18    19    2
    31    18    20    1
    32    20    21    1
    33    17    12   ar
    34     8     1    1
    35    21    16    1
    36    28    23   ar
    37    33    29   ar
@<TRIPOS>MOLECULE
*****
 33 37 0 0 0
SMALL
GASTEIGER

@<TRIPOS>ATOM
      1 N         140.8503  138.8891  160.9507 N.3     1  UNL1       -0.2695
      2 C         140.6918  138.2148  162.2813 C.3     1  UNL1        0.0939
      3 C         141.7662  138.3439  163.3200 C.3     1  UNL1        0.1107
      4 N         142.9989  139.1471  163.0283 N.am    1  UNL1       -0.2764
      5 C         144.0733  139.2761  164.0672 C.2     1  UNL1        0.2301
      6 O         145.3060  140.0792  163.7755 O.2     1  UNL1       -0.2745
      7 C         143.1574  139.8213  161.6979 C.3     1  UNL1        0.1107
      8 C         142.0831  139.6924  160.6590 C.3     1  UNL1        0.0939
      9 C         139.7760  138.7602  159.9118 C.3     1  UNL1        0.0769
     10 C         138.6734  139.7748  159.8433 C.3     1  UNL1        0.0436
     11 C         137.5639  142.1747  164.3166 C.3     1  UNL1        0.0312
     12 C         138.1711  142.1990  162.9452 C.ar    1  UNL1       -0.0161
     13 C         138.1186  140.9748  162.0799 C.ar    1  UNL1       -0.0083
     14 C         138.7258  140.9990  160.7086 C.ar    1  UNL1       -0.0213
     15 C         139.3856  142.2474  160.2024 C.ar    1  UNL1       -0.0047
     16 C         139.4381  143.4716  161.0676 C.ar    1  UNL1        0.0269
     17 C         138.8309  143.4474  162.4390 C.ar    1  UNL1        0.0712
     18 C         139.0343  144.7976  163.0600 C.2     1  UNL1        0.3410
     19 O         138.5839  145.2157  164.4283 O.2     1  UNL1       -0.2449
     20 O         139.7673  145.6563  162.0723 O.3     1  UNL1       -0.4404
     21 C         140.0168  144.8368  160.8410 C.3     1  UNL1        0.2356
     22 C         143.9148  138.6018  165.3977 C.3     1  UNL1        0.1116
     23 C         143.2372  139.3204  166.5266 C.ar    1  UNL1       -0.0130
     24 C         143.0459  138.6327  167.8460 C.ar    1  UNL1       -0.0022
     25 C         142.3683  139.3514  168.9750 C.ar    1  UNL1        0.0190
     26 C         141.8820  140.7574  168.7845 C.ar    1  UNL1        0.0862
     27 C         142.0733  141.4451  167.4652 C.ar    1  UNL1        0.0190
     28 C         142.7509  140.7265  166.3363 C.ar    1  UNL1       -0.0022
     29 N         141.2044  141.4761  169.9135 N.ar    1  UNL1       -0.1886
     30 C         140.0461  142.4208  169.7884 C.ar    1  UNL1        0.2258
     31 N         139.6920  142.9047  171.1633 N.ar    1  UNL1       -0.1045
     32 N         140.6315  142.2590  172.1382 N.ar    1  UNL1       -0.0222
     33 N         141.5662  141.3761  171.3658 N.ar    1  UNL1       -0.0385
@<TRIPOS>BOND
     1    11    12    1
     2    12    13   ar
     3    13    14   ar
     4    14    10    1
     5    10     9    1
     6     9     1    1
     7     1     2    1
     8     2     3    1
     9     3     4    1
    10     4     5   am
    11     5     6    2
    12     5    22    1
    13    22    23    1
    14    23    24   ar
    15    24    25   ar
    16    25    26   ar
    17    26    29    1
    18    29    30   ar
    19    30    31   ar
    20    31    32   ar
    21    32    33   ar
    22    26    27   ar
    23    27    28   ar
    24     4     7    1
    25     7     8    1
    26    14    15   ar
    27    15    16   ar
    28    16    17   ar
    29    17    18    1
    30    18    19    2
    31    18    20    1
    32    20    21    1
    33    17    12   ar
    34     8     1    1
    35    21    16    1
    36    28    23   ar
    37    33    29   ar
@<TRIPOS>MOLECULE
*****
 33 37 0 0 0
SMALL
GASTEIGER

@<TRIPOS>ATOM
      1 N         141.7841  138.4657  159.7684 N.3     1  UNL1       -0.2695
      2 C         142.0791  137.6964  161.0220 C.3     1  UNL1        0.0939
      3 C         141.1955  137.8537  162.2238 C.3     1  UNL1        0.1107
      4 N         140.0170  138.7801  162.1722 N.am    1  UNL1       -0.2764
      5 C         139.1333  138.9373  163.3741 C.2     1  UNL1        0.2301
      6 O         137.9548  139.8637  163.3225 O.2     1  UNL1       -0.2745
      7 C         139.7219  139.5493  160.9187 C.3     1  UNL1        0.1107
      8 C         140.6055  139.3921  159.7168 C.3     1  UNL1        0.0939
      9 C         142.6677  138.3085  158.5665 C.3     1  UNL1        0.0769
     10 C         142.0830  137.8630  157.2590 C.3     1  UNL1        0.0436
     11 C         141.9854  134.4586  153.3345 C.3     1  UNL1        0.0312
     12 C         142.3979  134.8201  154.7307 C.ar    1  UNL1       -0.0161
     13 C         142.0342  136.1608  155.2968 C.ar    1  UNL1       -0.0083
     14 C         142.4467  136.5223  156.6928 C.ar    1  UNL1       -0.0213
     15 C         143.2229  135.5433  157.5229 C.ar    1  UNL1       -0.0047
     16 C         143.5866  134.2026  156.9568 C.ar    1  UNL1        0.0269
     17 C         143.1741  133.8411  155.5607 C.ar    1  UNL1        0.0712
     18 C         143.6725  132.4556  155.2741 C.2     1  UNL1        0.3410
     19 O         143.4836  131.6979  153.9935 O.2     1  UNL1       -0.2449
     20 O         144.3931  131.9610  156.4932 O.3     1  UNL1       -0.4404
     21 C         144.3400  133.0406  157.5331 C.3     1  UNL1        0.2356
     22 C         139.4283  138.1681  164.6276 C.3     1  UNL1        0.1116
     23 C         139.7085  138.8986  165.9074 C.ar    1  UNL1       -0.0130
     24 C         138.6118  139.1019  166.9105 C.ar    1  UNL1       -0.0022
     25 C         138.8920  139.8324  168.1904 C.ar    1  UNL1        0.0190
     26 C         140.2687  140.3596  168.4670 C.ar    1  UNL1        0.0862
     27 C         141.3653  140.1564  167.4640 C.ar    1  UNL1        0.0190
     28 C         141.0852  139.4259  166.1842 C.ar    1  UNL1       -0.0022
     29 N         140.5489  141.0901  169.7469 N.ar    1  UNL1       -0.1886
     30 C         141.9055  141.3899  170.3122 C.ar    1  UNL1        0.2258
     31 N         141.7167  142.1341  171.6007 N.ar    1  UNL1       -0.1045
     32 N         140.2433  142.2944  171.8318 N.ar    1  UNL1       -0.0222
     33 N         139.5215  141.6492  170.6860 N.ar    1  UNL1       -0.0385
@<TRIPOS>BOND
     1    11    12    1
     2    12    13   ar
     3    13    14   ar
     4    14    10    1
     5    10     9    1
     6     9     1    1
     7     1     2    1
     8     2     3    1
     9     3     4    1
    10     4     5   am
    11     5     6    2
    12     5    22    1
    13    22    23    1
    14    23    24   ar
    15    24    25   ar
    16    25    26   ar
    17    26    29    1
    18    29    30   ar
    19    30    31   ar
    20    31    32   ar
    21    32    33   ar
    22    26    27   ar
    23    27    28   ar
    24     4     7    1
    25     7     8    1
    26    14    15   ar
    27    15    16   ar
    28    16    17   ar
    29    17    18    1
    30    18    19    2
    31    18    20    1
    32    20    21    1
    33    17    12   ar
    34     8     1    1
    35    21    16    1
    36    28    23   ar
    37    33    29   ar
@<TRIPOS>MOLECULE
*****
 33 37 0 0 0
SMALL
GASTEIGER

@<TRIPOS>ATOM
      1 N         142.3113  141.8769  159.5605 N.3     1  UNL1       -0.2695
      2 C         142.0027  140.7121  160.4538 C.3     1  UNL1        0.0939
      3 C         142.9039  140.3943  161.6100 C.3     1  UNL1        0.1107
      4 N         144.1136  141.2411  161.8729 N.am    1  UNL1       -0.2764
      5 C         145.0149  140.9233  163.0291 C.2     1  UNL1        0.2301
      6 O         146.2246  141.7702  163.2920 O.2     1  UNL1       -0.2745
      7 C         144.4223  142.4059  160.9796 C.3     1  UNL1        0.1107
      8 C         143.5211  142.7238  159.8234 C.3     1  UNL1        0.0939
      9 C         141.4101  142.1948  158.4043 C.3     1  UNL1        0.0769
     10 C         140.0721  142.8273  158.6481 C.3     1  UNL1        0.0436
     11 C         140.2682  146.0336  162.7325 C.3     1  UNL1        0.0312
     12 C         139.7504  144.7827  162.0867 C.ar    1  UNL1       -0.0161
     13 C         140.1701  144.4304  160.6903 C.ar    1  UNL1       -0.0083
     14 C         139.6523  143.1795  160.0445 C.ar    1  UNL1       -0.0213
     15 C         138.7148  142.2808  160.7950 C.ar    1  UNL1       -0.0047
     16 C         138.2951  142.6330  162.1914 C.ar    1  UNL1        0.0269
     17 C         138.8129  143.8839  162.8372 C.ar    1  UNL1        0.0712
     18 C         138.2276  143.9704  164.2156 C.2     1  UNL1        0.3410
     19 O         138.4779  145.0626  165.2128 O.2     1  UNL1       -0.2449
     20 O         137.3482  142.7728  164.4217 O.3     1  UNL1       -0.4404
     21 C         137.3898  141.9463  163.1707 C.3     1  UNL1        0.2356
     22 C         144.7063  139.7585  163.9224 C.3     1  UNL1        0.1116
     23 C         143.8000  139.9390  165.1040 C.ar    1  UNL1       -0.0130
     24 C         143.5359  138.7882  166.0293 C.ar    1  UNL1       -0.0022
     25 C         142.6296  138.9688  167.2110 C.ar    1  UNL1        0.0190
     26 C         141.9876  140.2999  167.4672 C.ar    1  UNL1        0.0862
     27 C         142.2517  141.4506  166.5419 C.ar    1  UNL1        0.0190
     28 C         143.1579  141.2701  165.3603 C.ar    1  UNL1       -0.0022
     29 N         141.0813  140.4805  168.6488 N.ar    1  UNL1       -0.1886
     30 C         140.2506  141.6936  168.9457 C.ar    1  UNL1        0.2258
     31 N         139.5026  141.4424  170.2213 N.ar    1  UNL1       -0.1045
     32 N         139.8710  140.0740  170.7129 N.ar    1  UNL1       -0.0222
     33 N         140.8467  139.4795  169.7411 N.ar    1  UNL1       -0.0385
@<TRIPOS>BOND
     1    11    12    1
     2    12    13   ar
     3    13    14   ar
     4    14    10    1
     5    10     9    1
     6     9     1    1
     7     1     2    1
     8     2     3    1
     9     3     4    1
    10     4     5   am
    11     5     6    2
    12     5    22    1
    13    22    23    1
    14    23    24   ar
    15    24    25   ar
    16    25    26   ar
    17    26    29    1
    18    29    30   ar
    19    30    31   ar
    20    31    32   ar
    21    32    33   ar
    22    26    27   ar
    23    27    28   ar
    24     4     7    1
    25     7     8    1
    26    14    15   ar
    27    15    16   ar
    28    16    17   ar
    29    17    18    1
    30    18    19    2
    31    18    20    1
    32    20    21    1
    33    17    12   ar
    34     8     1    1
    35    21    16    1
    36    28    23   ar
    37    33    29   ar
