@<TRIPOS>MOLECULE
*****
 34 39 0 0 0
SMALL
GASTEIGER

@<TRIPOS>ATOM
      1 C         140.1403  140.7983  161.8628 C.3     1  UNL1        0.0339
      2 C         140.5839  141.6082  163.0448 C.ar    1  UNL1        0.0095
      3 C         141.3925  142.8547  162.8391 C.ar    1  UNL1        0.0730
      4 C         141.8361  143.6646  164.0212 C.ar    1  UNL1        0.1531
      5 F         142.6448  144.9111  163.8154 F       1  UNL1       -0.2029
      6 C         141.4712  143.2279  165.4090 C.ar    1  UNL1        0.0324
      7 C         140.6626  141.9814  165.6147 C.ar    1  UNL1        0.0211
      8 C         140.2976  141.5447  167.0026 C.ar    1  UNL1        0.0435
      9 C         139.4891  140.2982  167.2084 C.ar    1  UNL1        0.0639
     10 C         139.0454  139.4883  166.0263 C.ar    1  UNL1        0.2610
     11 O         138.2368  138.2418  166.2321 O.2     1  UNL1       -0.2670
     12 N         139.4104  139.9250  164.6385 N.ar    1  UNL1       -0.2976
     13 C         140.2190  141.1715  164.4327 C.ar    1  UNL1        0.0598
     14 C         140.7413  142.3546  168.1847 C.ar    1  UNL1        0.1804
     15 C         141.9863  142.1296  168.9904 C.ar    1  UNL1        0.1007
     16 C         142.0323  143.1676  170.0723 C.ar    1  UNL1        0.2610
     17 O         143.1064  143.3134  171.1092 O.3     1  UNL1       -0.4900
     18 N         140.8156  144.0341  169.9352 N.ar    1  UNL1       -0.0390
     19 O         140.0178  143.5317  168.7686 O.2     1  UNL1       -0.3504
     20 H         143.8332  142.7221  171.1172 H       1  UNL1        0.2938
     21 N         141.7575  143.2914  161.4512 N.pl3   1  UNL1       -0.3059
     22 C         142.9506  142.8310  160.6672 C.3     1  UNL1        0.0909
     23 C         142.9240  143.5202  159.3351 C.3     1  UNL1        0.0244
     24 C         141.7144  144.4065  159.2959 C.3     1  UNL1        0.0344
     25 C         140.9935  144.2651  160.6037 C.3     1  UNL1        0.0921
     26 C         141.2987  145.2807  158.1501 C.3     1  UNL1        0.0406
     27 N         142.5173  146.1468  158.0279 N.3     1  UNL1       -0.3231
     28 C         140.4599  145.8541  157.0467 C.3     1  UNL1        0.0156
     29 C         139.9358  144.7182  157.8744 C.3     1  UNL1        0.0156
     30 H         143.2018  145.8719  158.7324 H       1  UNL1        0.1188
     31 H         142.2564  147.1227  158.1699 H       1  UNL1        0.1188
     32 C         138.9667  139.1151  163.4564 C.3     1  UNL1        0.0885
     33 C         137.9775  138.8509  162.3603 C.3     1  UNL1        0.0246
     34 C         139.1877  137.9766  162.5051 C.3     1  UNL1        0.0246
@<TRIPOS>BOND
     1     1     2    1
     2     2     3   ar
     3     3    21    1
     4    21    22    1
     5    22    23    1
     6    23    24    1
     7    24    26    1
     8    26    27    1
     9    26    28    1
    10    28    29    1
    11    24    25    1
    12     3     4   ar
    13     4     5    1
    14     4     6   ar
    15     6     7   ar
    16     7     8   ar
    17     8    14    1
    18    14    15   ar
    19    15    16   ar
    20    16    17    1
    21    16    18   ar
    22    18    19   ar
    23     8     9   ar
    24     9    10   ar
    25    10    11    2
    26    10    12   ar
    27    12    32    1
    28    32    33    1
    29    33    34    1
    30    12    13   ar
    31    13     2   ar
    32    25    21    1
    33    13     7   ar
    34    29    26    1
    35    19    14   ar
    36    34    32    1
    37    27    30    1
    38    27    31    1
    39    17    20    1
@<TRIPOS>MOLECULE
*****
 34 39 0 0 0
SMALL
GASTEIGER

@<TRIPOS>ATOM
      1 C         140.5874  140.1257  162.4520 C.3     1  UNL1        0.0339
      2 C         140.9845  140.8998  163.6739 C.ar    1  UNL1        0.0095
      3 C         142.0332  141.9679  163.5772 C.ar    1  UNL1        0.0730
      4 C         142.4303  142.7420  164.7991 C.ar    1  UNL1        0.1531
      5 F         143.4791  143.8101  164.7023 F       1  UNL1       -0.2029
      6 C         141.7787  142.4481  166.1177 C.ar    1  UNL1        0.0324
      7 C         140.7299  141.3800  166.2145 C.ar    1  UNL1        0.0211
      8 C         140.0782  141.0860  167.5332 C.ar    1  UNL1        0.0435
      9 C         139.0295  140.0180  167.6299 C.ar    1  UNL1        0.0639
     10 C         138.6324  139.2439  166.4080 C.ar    1  UNL1        0.2610
     11 O         137.5836  138.1758  166.5048 O.2     1  UNL1       -0.2670
     12 N         139.2841  139.5378  165.0894 N.ar    1  UNL1       -0.2976
     13 C         140.3329  140.6059  164.9926 C.ar    1  UNL1        0.0598
     14 C         140.4753  141.8601  168.7551 C.ar    1  UNL1        0.1804
     15 C         141.3407  141.3596  169.8734 C.ar    1  UNL1        0.1007
     16 C         141.4770  142.4608  170.8827 C.ar    1  UNL1        0.2610
     17 O         142.2574  142.3928  172.1619 O.3     1  UNL1       -0.4900
     18 N         140.6957  143.6420  170.3882 N.ar    1  UNL1       -0.0390
     19 O         140.0767  143.2708  169.0733 O.2     1  UNL1       -0.3504
     20 H         142.7168  141.6084  172.3892 H       1  UNL1        0.2938
     21 N         142.6849  142.2619  162.2584 N.pl3   1  UNL1       -0.3059
     22 C         144.0935  141.9173  161.8749 C.3     1  UNL1        0.0909
     23 C         144.3217  142.3945  160.4712 C.3     1  UNL1        0.0244
     24 C         143.0540  143.0340  159.9873 C.3     1  UNL1        0.0344
     25 C         142.0425  142.9520  161.0919 C.3     1  UNL1        0.0921
     26 C         142.8361  143.6476  158.6360 C.3     1  UNL1        0.0406
     27 N         141.9728  144.8140  159.0158 N.3     1  UNL1       -0.3231
     28 C         142.9181  143.8562  157.1529 C.3     1  UNL1        0.0156
     29 C         143.6238  142.6944  157.7870 C.3     1  UNL1        0.0156
     30 H         141.8213  144.8107  160.0245 H       1  UNL1        0.1188
     31 H         141.0750  144.7426  158.5369 H       1  UNL1        0.1188
     32 C         138.8870  138.7637  163.8675 C.3     1  UNL1        0.0885
     33 C         138.1195  138.6690  162.5822 C.3     1  UNL1        0.0246
     34 C         138.9667  137.5175  163.0364 C.3     1  UNL1        0.0246
@<TRIPOS>BOND
     1     1     2    1
     2     2     3   ar
     3     3    21    1
     4    21    22    1
     5    22    23    1
     6    23    24    1
     7    24    26    1
     8    26    27    1
     9    26    28    1
    10    28    29    1
    11    24    25    1
    12     3     4   ar
    13     4     5    1
    14     4     6   ar
    15     6     7   ar
    16     7     8   ar
    17     8    14    1
    18    14    15   ar
    19    15    16   ar
    20    16    17    1
    21    16    18   ar
    22    18    19   ar
    23     8     9   ar
    24     9    10   ar
    25    10    11    2
    26    10    12   ar
    27    12    32    1
    28    32    33    1
    29    33    34    1
    30    12    13   ar
    31    13     2   ar
    32    25    21    1
    33    13     7   ar
    34    29    26    1
    35    19    14   ar
    36    34    32    1
    37    27    30    1
    38    27    31    1
    39    17    20    1
@<TRIPOS>MOLECULE
*****
 34 39 0 0 0
SMALL
GASTEIGER

@<TRIPOS>ATOM
      1 C         141.0449  139.9216  164.4528 C.3     1  UNL1        0.0339
      2 C         141.2223  141.2018  163.6915 C.ar    1  UNL1        0.0095
      3 C         141.5513  142.4697  164.4225 C.ar    1  UNL1        0.0730
      4 C         141.7287  143.7499  163.6612 C.ar    1  UNL1        0.1531
      5 F         142.0576  145.0178  164.3922 F       1  UNL1       -0.2029
      6 C         141.5772  143.7623  162.1690 C.ar    1  UNL1        0.0324
      7 C         141.2483  142.4944  161.4380 C.ar    1  UNL1        0.0211
      8 C         141.0967  142.5067  159.9457 C.ar    1  UNL1        0.0435
      9 C         140.7678  141.2389  159.2147 C.ar    1  UNL1        0.0639
     10 C         140.5904  139.9587  159.9760 C.ar    1  UNL1        0.2610
     11 O         140.2614  138.6908  159.2450 O.2     1  UNL1       -0.2670
     12 N         140.7419  139.9463  161.4683 N.ar    1  UNL1       -0.2976
     13 C         141.0708  141.2142  162.1993 C.ar    1  UNL1        0.0598
     14 C         141.2742  143.7870  159.1844 C.ar    1  UNL1        0.1804
     15 C         140.1809  144.5931  158.5479 C.ar    1  UNL1        0.1007
     16 C         140.8071  145.7902  157.8961 C.ar    1  UNL1        0.2610
     17 O         140.0805  146.8648  157.1429 O.3     1  UNL1       -0.4900
     18 N         142.2873  145.7239  158.1296 N.ar    1  UNL1       -0.0390
     19 O         142.5759  144.4859  158.9258 O.2     1  UNL1       -0.3504
     20 H         139.1494  146.8223  157.0475 H       1  UNL1        0.2938
     21 N         141.7028  142.4574  165.9148 N.pl3   1  UNL1       -0.3059
     22 C         142.9818  142.2460  166.6694 C.3     1  UNL1        0.0909
     23 C         142.6714  142.3122  168.1355 C.3     1  UNL1        0.0244
     24 C         141.2005  142.5645  168.2869 C.3     1  UNL1        0.0344
     25 C         140.6019  142.6542  166.9145 C.3     1  UNL1        0.0921
     26 C         140.4586  142.7028  169.5832 C.3     1  UNL1        0.0406
     27 N         140.9018  144.0764  169.9917 N.3     1  UNL1       -0.3231
     28 C         139.5627  142.3641  170.7376 C.3     1  UNL1        0.0156
     29 C         139.7577  141.3773  169.6249 C.3     1  UNL1        0.0156
     30 H         141.5353  144.4529  169.2866 H       1  UNL1        0.1188
     31 H         141.3837  144.0253  170.8892 H       1  UNL1        0.1188
     32 C         140.5645  138.6661  162.2296 C.3     1  UNL1        0.0885
     33 C         141.1524  137.4463  162.8749 C.3     1  UNL1        0.0246
     34 C         139.6692  137.6685  162.9028 C.3     1  UNL1        0.0246
@<TRIPOS>BOND
     1     1     2    1
     2     2     3   ar
     3     3    21    1
     4    21    22    1
     5    22    23    1
     6    23    24    1
     7    24    26    1
     8    26    27    1
     9    26    28    1
    10    28    29    1
    11    24    25    1
    12     3     4   ar
    13     4     5    1
    14     4     6   ar
    15     6     7   ar
    16     7     8   ar
    17     8    14    1
    18    14    15   ar
    19    15    16   ar
    20    16    17    1
    21    16    18   ar
    22    18    19   ar
    23     8     9   ar
    24     9    10   ar
    25    10    11    2
    26    10    12   ar
    27    12    32    1
    28    32    33    1
    29    33    34    1
    30    12    13   ar
    31    13     2   ar
    32    25    21    1
    33    13     7   ar
    34    29    26    1
    35    19    14   ar
    36    34    32    1
    37    27    30    1
    38    27    31    1
    39    17    20    1
@<TRIPOS>MOLECULE
*****
 34 39 0 0 0
SMALL
GASTEIGER

@<TRIPOS>ATOM
      1 C         141.8718  140.6178  162.2492 C.3     1  UNL1        0.0339
      2 C         141.4278  141.4114  163.4421 C.ar    1  UNL1        0.0095
      3 C         140.6178  142.6596  163.2532 C.ar    1  UNL1        0.0730
      4 C         140.1737  143.4533  164.4460 C.ar    1  UNL1        0.1531
      5 F         139.3637  144.7016  164.2571 F       1  UNL1       -0.2029
      6 C         140.5396  142.9986  165.8278 C.ar    1  UNL1        0.0324
      7 C         141.3496  141.7504  166.0167 C.ar    1  UNL1        0.0211
      8 C         141.7156  141.2957  167.3986 C.ar    1  UNL1        0.0435
      9 C         142.5255  140.0474  167.5875 C.ar    1  UNL1        0.0639
     10 C         142.9696  139.2538  166.3946 C.ar    1  UNL1        0.2610
     11 O         143.7796  138.0054  166.5835 O.2     1  UNL1       -0.2670
     12 N         142.6037  139.7084  165.0128 N.ar    1  UNL1       -0.2976
     13 C         141.7937  140.9567  164.8238 C.ar    1  UNL1        0.0598
     14 C         141.2715  142.0893  168.5914 C.ar    1  UNL1        0.1804
     15 C         139.9503  141.9654  169.2907 C.ar    1  UNL1        0.1007
     16 C         139.9329  142.9457  170.4259 C.ar    1  UNL1        0.2610
     17 O         138.8033  143.1588  171.3896 O.3     1  UNL1       -0.4900
     18 N         141.2434  143.6754  170.4283 N.ar    1  UNL1       -0.0390
     19 O         142.0707  143.1461  169.2945 O.2     1  UNL1       -0.3504
     20 H         138.0181  142.6536  171.3102 H       1  UNL1        0.2938
     21 N         140.2518  143.1143  161.8713 N.pl3   1  UNL1       -0.3059
     22 C         139.0491  142.6771  161.0889 C.3     1  UNL1        0.0909
     23 C         139.0782  143.3786  159.7634 C.3     1  UNL1        0.0244
     24 C         140.2991  144.2494  159.7266 C.3     1  UNL1        0.0344
     25 C         141.0244  144.0861  161.0294 C.3     1  UNL1        0.0921
     26 C         140.7206  145.1291  158.5871 C.3     1  UNL1        0.0406
     27 N         141.8701  145.8502  159.2261 N.3     1  UNL1       -0.3231
     28 C         140.7428  145.7583  157.2256 C.3     1  UNL1        0.0156
     29 C         139.7174  144.7134  157.5523 C.3     1  UNL1        0.0156
     30 H         141.9862  145.5226  160.1851 H       1  UNL1        0.1188
     31 H         141.6827  146.8529  159.2298 H       1  UNL1        0.1188
     32 C         143.0478  138.9148  163.8199 C.3     1  UNL1        0.0885
     33 C         144.0973  138.5739  162.8040 C.3     1  UNL1        0.0246
     34 C         142.7673  137.8811  162.7698 C.3     1  UNL1        0.0246
@<TRIPOS>BOND
     1     1     2    1
     2     2     3   ar
     3     3    21    1
     4    21    22    1
     5    22    23    1
     6    23    24    1
     7    24    26    1
     8    26    27    1
     9    26    28    1
    10    28    29    1
    11    24    25    1
    12     3     4   ar
    13     4     5    1
    14     4     6   ar
    15     6     7   ar
    16     7     8   ar
    17     8    14    1
    18    14    15   ar
    19    15    16   ar
    20    16    17    1
    21    16    18   ar
    22    18    19   ar
    23     8     9   ar
    24     9    10   ar
    25    10    11    2
    26    10    12   ar
    27    12    32    1
    28    32    33    1
    29    33    34    1
    30    12    13   ar
    31    13     2   ar
    32    25    21    1
    33    13     7   ar
    34    29    26    1
    35    19    14   ar
    36    34    32    1
    37    27    30    1
    38    27    31    1
    39    17    20    1
@<TRIPOS>MOLECULE
*****
 34 39 0 0 0
SMALL
GASTEIGER

@<TRIPOS>ATOM
      1 C         142.3912  142.5545  164.7132 C.3     1  UNL1        0.0339
      2 C         142.1332  141.4040  163.7860 C.ar    1  UNL1        0.0095
      3 C         141.9544  140.0210  164.3384 C.ar    1  UNL1        0.0730
      4 C         141.6963  138.8705  163.4111 C.ar    1  UNL1        0.1531
      5 F         141.5175  137.4874  163.9637 F       1  UNL1       -0.2029
      6 C         141.6170  139.1031  161.9314 C.ar    1  UNL1        0.0324
      7 C         141.7958  140.4861  161.3790 C.ar    1  UNL1        0.0211
      8 C         141.7165  140.7187  159.8992 C.ar    1  UNL1        0.0435
      9 C         141.8953  142.1017  159.3467 C.ar    1  UNL1        0.0639
     10 C         142.1534  143.2522  160.2740 C.ar    1  UNL1        0.2610
     11 O         142.3322  144.6352  159.7215 O.2     1  UNL1       -0.2670
     12 N         142.2327  143.0196  161.7537 N.ar    1  UNL1       -0.2976
     13 C         142.0539  141.6366  162.3062 C.ar    1  UNL1        0.0598
     14 C         141.4585  139.5682  158.9719 C.ar    1  UNL1        0.1804
     15 C         140.1172  139.1289  158.4640 C.ar    1  UNL1        0.1007
     16 C         140.3261  137.9442  157.5679 C.ar    1  UNL1        0.2610
     17 O         139.2530  137.1856  156.8448 O.3     1  UNL1       -0.4900
     18 N         141.7965  137.6513  157.5221 N.ar    1  UNL1       -0.0390
     19 O         142.4963  138.6550  158.3898 O.2     1  UNL1       -0.3504
     20 H         138.3564  137.4427  156.9338 H       1  UNL1        0.2938
     21 N         142.0336  139.7884  165.8182 N.pl3   1  UNL1       -0.3059
     22 C         143.1870  139.1725  166.5533 C.3     1  UNL1        0.0909
     23 C         142.8397  139.1343  168.0121 C.3     1  UNL1        0.0244
     24 C         141.4716  139.7266  168.1785 C.3     1  UNL1        0.0344
     25 C         140.9735  140.1309  166.8226 C.3     1  UNL1        0.0921
     26 C         140.7317  139.8866  169.4734 C.3     1  UNL1        0.0406
     27 N         141.7464  139.3246  170.4244 N.3     1  UNL1       -0.3231
     28 C         139.6393  140.2418  170.4380 C.3     1  UNL1        0.0156
     29 C         139.4599  140.5041  168.9721 C.3     1  UNL1        0.0156
     30 H         142.5729  139.0296  169.9044 H       1  UNL1        0.1188
     31 H         141.3476  138.5227  170.9124 H       1  UNL1        0.1188
     32 C         142.4908  144.1701  162.6810 C.3     1  UNL1        0.0885
     33 C         141.9759  145.2838  163.5438 C.3     1  UNL1        0.0246
     34 C         143.4526  145.0490  163.4242 C.3     1  UNL1        0.0246
@<TRIPOS>BOND
     1     1     2    1
     2     2     3   ar
     3     3    21    1
     4    21    22    1
     5    22    23    1
     6    23    24    1
     7    24    26    1
     8    26    27    1
     9    26    28    1
    10    28    29    1
    11    24    25    1
    12     3     4   ar
    13     4     5    1
    14     4     6   ar
    15     6     7   ar
    16     7     8   ar
    17     8    14    1
    18    14    15   ar
    19    15    16   ar
    20    16    17    1
    21    16    18   ar
    22    18    19   ar
    23     8     9   ar
    24     9    10   ar
    25    10    11    2
    26    10    12   ar
    27    12    32    1
    28    32    33    1
    29    33    34    1
    30    12    13   ar
    31    13     2   ar
    32    25    21    1
    33    13     7   ar
    34    29    26    1
    35    19    14   ar
    36    34    32    1
    37    27    30    1
    38    27    31    1
    39    17    20    1
@<TRIPOS>MOLECULE
*****
 34 39 0 0 0
SMALL
GASTEIGER

@<TRIPOS>ATOM
      1 C         141.1276  142.8839  164.6538 C.3     1  UNL1        0.0339
      2 C         141.2315  141.6542  163.8012 C.ar    1  UNL1        0.0095
      3 C         141.0188  140.2997  164.4095 C.ar    1  UNL1        0.0730
      4 C         141.1227  139.0699  163.5569 C.ar    1  UNL1        0.1531
      5 F         140.9099  137.7154  164.1653 F       1  UNL1       -0.2029
      6 C         141.4393  139.1946  162.0960 C.ar    1  UNL1        0.0324
      7 C         141.6520  140.5491  161.4878 C.ar    1  UNL1        0.0211
      8 C         141.9686  140.6739  160.0268 C.ar    1  UNL1        0.0435
      9 C         142.1813  142.0284  159.4185 C.ar    1  UNL1        0.0639
     10 C         142.0774  143.2582  160.2711 C.ar    1  UNL1        0.2610
     11 O         142.2902  144.6127  159.6628 O.2     1  UNL1       -0.2670
     12 N         141.7608  143.1335  161.7320 N.ar    1  UNL1       -0.2976
     13 C         141.5481  141.7789  162.3403 C.ar    1  UNL1        0.0598
     14 C         142.0725  139.4442  159.1742 C.ar    1  UNL1        0.1804
     15 C         140.9787  138.8627  158.3284 C.ar    1  UNL1        0.1007
     16 C         141.5186  137.6391  157.6492 C.ar    1  UNL1        0.2610
     17 O         140.7636  136.7469  156.7091 O.3     1  UNL1       -0.4900
     18 N         142.9462  137.4643  158.0753 N.ar    1  UNL1       -0.0390
     19 O         143.2885  138.5799  159.0178 O.2     1  UNL1       -0.3504
     20 H         139.8699  136.9358  156.5001 H       1  UNL1        0.2938
     21 N         140.7021  140.1749  165.8704 N.pl3   1  UNL1       -0.3059
     22 C         139.3392  139.9711  166.4629 C.3     1  UNL1        0.0909
     23 C         139.4875  139.9023  167.9539 C.3     1  UNL1        0.0244
     24 C         140.9421  140.0635  168.2830 C.3     1  UNL1        0.0344
     25 C         141.6928  140.2320  166.9953 C.3     1  UNL1        0.0921
     26 C         141.5409  140.0573  169.6583 C.3     1  UNL1        0.0406
     27 N         140.4008  139.4701  170.4361 N.3     1  UNL1       -0.3231
     28 C         142.5357  140.2551  170.7633 C.3     1  UNL1        0.0156
     29 C         142.8891  140.6424  169.3580 C.3     1  UNL1        0.0156
     30 H         139.6236  139.2746  169.8050 H       1  UNL1        0.1188
     31 H         140.0999  140.1326  171.1509 H       1  UNL1        0.1188
     32 C         141.6569  144.3632  162.5845 C.3     1  UNL1        0.0885
     33 C         142.2586  145.3047  163.5854 C.3     1  UNL1        0.0246
     34 C         140.8753  145.5517  163.0604 C.3     1  UNL1        0.0246
@<TRIPOS>BOND
     1     1     2    1
     2     2     3   ar
     3     3    21    1
     4    21    22    1
     5    22    23    1
     6    23    24    1
     7    24    26    1
     8    26    27    1
     9    26    28    1
    10    28    29    1
    11    24    25    1
    12     3     4   ar
    13     4     5    1
    14     4     6   ar
    15     6     7   ar
    16     7     8   ar
    17     8    14    1
    18    14    15   ar
    19    15    16   ar
    20    16    17    1
    21    16    18   ar
    22    18    19   ar
    23     8     9   ar
    24     9    10   ar
    25    10    11    2
    26    10    12   ar
    27    12    32    1
    28    32    33    1
    29    33    34    1
    30    12    13   ar
    31    13     2   ar
    32    25    21    1
    33    13     7   ar
    34    29    26    1
    35    19    14   ar
    36    34    32    1
    37    27    30    1
    38    27    31    1
    39    17    20    1
@<TRIPOS>MOLECULE
*****
 34 39 0 0 0
SMALL
GASTEIGER

@<TRIPOS>ATOM
      1 C         141.7396  139.3020  163.2320 C.3     1  UNL1        0.0339
      2 C         140.5709  139.7975  162.4328 C.ar    1  UNL1        0.0095
      3 C         139.2870  140.1523  163.1225 C.ar    1  UNL1        0.0730
      4 C         138.1184  140.6479  162.3233 C.ar    1  UNL1        0.1531
      5 F         136.8345  141.0026  163.0131 F       1  UNL1       -0.2029
      6 C         138.2337  140.7886  160.8344 C.ar    1  UNL1        0.0324
      7 C         139.5175  140.4338  160.1447 C.ar    1  UNL1        0.0211
      8 C         139.6328  140.5746  158.6557 C.ar    1  UNL1        0.0435
      9 C         140.9167  140.2198  157.9661 C.ar    1  UNL1        0.0639
     10 C         142.0854  139.7242  158.7653 C.ar    1  UNL1        0.2610
     11 O         143.3693  139.3695  158.0755 O.2     1  UNL1       -0.2670
     12 N         141.9701  139.5835  160.2542 N.ar    1  UNL1       -0.2976
     13 C         140.6862  139.9383  160.9439 C.ar    1  UNL1        0.0598
     14 C         138.4642  141.0701  157.8565 C.ar    1  UNL1        0.1804
     15 C         138.2539  142.4773  157.3817 C.ar    1  UNL1        0.1007
     16 C         136.9604  142.5223  156.6235 C.ar    1  UNL1        0.2610
     17 O         136.3613  143.7341  155.9733 O.3     1  UNL1       -0.4900
     18 N         136.3712  141.1429  156.6298 N.ar    1  UNL1       -0.0390
     19 O         137.3006  140.2454  157.3918 O.2     1  UNL1       -0.3504
     20 H         136.8036  144.5587  156.0216 H       1  UNL1        0.2938
     21 N         139.1717  140.0116  164.6115 N.pl3   1  UNL1       -0.3059
     22 C         138.3768  138.9685  165.3396 C.3     1  UNL1        0.0909
     23 C         138.5449  139.2014  166.8118 C.3     1  UNL1        0.0244
     24 C         139.4437  140.3885  166.9936 C.3     1  UNL1        0.0344
     25 C         139.8311  140.8892  165.6338 C.3     1  UNL1        0.0921
     26 C         139.8787  140.9724  168.3051 C.3     1  UNL1        0.0406
     27 N         139.3507  139.9278  169.2431 N.3     1  UNL1       -0.3231
     28 C         140.4971  141.9190  169.2906 C.3     1  UNL1        0.0156
     29 C         140.5578  142.2197  167.8223 C.3     1  UNL1        0.0156
     30 H         138.8882  139.1929  168.7081 H       1  UNL1        0.1188
     31 H         138.6817  140.3538  169.8845 H       1  UNL1        0.1188
     32 C         143.1388  139.0880  161.0534 C.3     1  UNL1        0.0885
     33 C         144.3341  139.3659  161.9158 C.3     1  UNL1        0.0246
     34 C         143.9675  137.9518  161.5752 C.3     1  UNL1        0.0246
@<TRIPOS>BOND
     1     1     2    1
     2     2     3   ar
     3     3    21    1
     4    21    22    1
     5    22    23    1
     6    23    24    1
     7    24    26    1
     8    26    27    1
     9    26    28    1
    10    28    29    1
    11    24    25    1
    12     3     4   ar
    13     4     5    1
    14     4     6   ar
    15     6     7   ar
    16     7     8   ar
    17     8    14    1
    18    14    15   ar
    19    15    16   ar
    20    16    17    1
    21    16    18   ar
    22    18    19   ar
    23     8     9   ar
    24     9    10   ar
    25    10    11    2
    26    10    12   ar
    27    12    32    1
    28    32    33    1
    29    33    34    1
    30    12    13   ar
    31    13     2   ar
    32    25    21    1
    33    13     7   ar
    34    29    26    1
    35    19    14   ar
    36    34    32    1
    37    27    30    1
    38    27    31    1
    39    17    20    1
@<TRIPOS>MOLECULE
*****
 34 39 0 0 0
SMALL
GASTEIGER

@<TRIPOS>ATOM
      1 C         142.7163  141.3941  164.8100 C.3     1  UNL1        0.0339
      2 C         141.5364  141.2769  163.8913 C.ar    1  UNL1        0.0095
      3 C         140.1761  140.9833  164.4511 C.ar    1  UNL1        0.0730
      4 C         138.9963  140.8661  163.5324 C.ar    1  UNL1        0.1531
      5 F         137.6359  140.5726  164.0923 F       1  UNL1       -0.2029
      6 C         139.1766  141.0425  162.0538 C.ar    1  UNL1        0.0324
      7 C         140.5369  141.3360  161.4939 C.ar    1  UNL1        0.0211
      8 C         140.7173  141.5124  160.0152 C.ar    1  UNL1        0.0435
      9 C         142.0776  141.8059  159.4554 C.ar    1  UNL1        0.0639
     10 C         143.2575  141.9231  160.3741 C.ar    1  UNL1        0.2610
     11 O         144.6178  142.2167  159.8142 O.2     1  UNL1       -0.2670
     12 N         143.0771  141.7468  161.8528 N.ar    1  UNL1       -0.2976
     13 C         141.7168  141.4532  162.4127 C.ar    1  UNL1        0.0598
     14 C         139.5374  141.3952  159.0965 C.ar    1  UNL1        0.1804
     15 C         138.8104  142.5342  158.4454 C.ar    1  UNL1        0.1007
     16 C         137.7010  141.9614  157.6140 C.ar    1  UNL1        0.2610
     17 O         136.7221  142.7443  156.7900 O.3     1  UNL1       -0.4900
     18 N         137.7424  140.4683  157.7513 N.ar    1  UNL1       -0.0390
     19 O         138.8774  140.1184  158.6675 O.2     1  UNL1       -0.3504
     20 H         136.7735  143.6795  156.7647 H       1  UNL1        0.2938
     21 N         139.9957  140.8070  165.9298 N.pl3   1  UNL1       -0.3059
     22 C         139.6342  139.5294  166.6277 C.3     1  UNL1        0.0909
     23 C         139.5602  139.8100  168.0994 C.3     1  UNL1        0.0244
     24 C         139.8760  141.2611  168.3110 C.3     1  UNL1        0.0344
     25 C         140.1451  141.8772  166.9701 C.3     1  UNL1        0.0921
     26 C         139.9156  141.9713  169.6316 C.3     1  UNL1        0.0406
     27 N         139.4302  140.8742  170.5320 N.3     1  UNL1       -0.3231
     28 C         140.1238  143.0625  170.6395 C.3     1  UNL1        0.0156
     29 C         140.4147  143.3150  169.1898 C.3     1  UNL1        0.0156
     30 H         139.2396  140.0391  169.9781 H       1  UNL1        0.1188
     31 H         138.5756  141.1730  171.0018 H       1  UNL1        0.1188
     32 C         144.2570  141.8640  162.7715 C.3     1  UNL1        0.0885
     33 C         145.0633  142.6588  163.7554 C.3     1  UNL1        0.0246
     34 C         145.4942  141.2722  163.3789 C.3     1  UNL1        0.0246
@<TRIPOS>BOND
     1     1     2    1
     2     2     3   ar
     3     3    21    1
     4    21    22    1
     5    22    23    1
     6    23    24    1
     7    24    26    1
     8    26    27    1
     9    26    28    1
    10    28    29    1
    11    24    25    1
    12     3     4   ar
    13     4     5    1
    14     4     6   ar
    15     6     7   ar
    16     7     8   ar
    17     8    14    1
    18    14    15   ar
    19    15    16   ar
    20    16    17    1
    21    16    18   ar
    22    18    19   ar
    23     8     9   ar
    24     9    10   ar
    25    10    11    2
    26    10    12   ar
    27    12    32    1
    28    32    33    1
    29    33    34    1
    30    12    13   ar
    31    13     2   ar
    32    25    21    1
    33    13     7   ar
    34    29    26    1
    35    19    14   ar
    36    34    32    1
    37    27    30    1
    38    27    31    1
    39    17    20    1
@<TRIPOS>MOLECULE
*****
 34 39 0 0 0
SMALL
GASTEIGER

@<TRIPOS>ATOM
      1 C         142.5220  141.5827  161.7885 C.3     1  UNL1        0.0339
      2 C         141.8206  140.9947  162.9769 C.ar    1  UNL1        0.0095
      3 C         140.7188  139.9963  162.7793 C.ar    1  UNL1        0.0730
      4 C         140.0174  139.4082  163.9677 C.ar    1  UNL1        0.1531
      5 F         138.9155  138.4098  163.7700 F       1  UNL1       -0.2029
      6 C         140.4179  139.8186  165.3537 C.ar    1  UNL1        0.0324
      7 C         141.5197  140.8171  165.5513 C.ar    1  UNL1        0.0211
      8 C         141.9203  141.2275  166.9374 C.ar    1  UNL1        0.0435
      9 C         143.0221  142.2259  167.1351 C.ar    1  UNL1        0.0639
     10 C         143.7234  142.8140  165.9466 C.ar    1  UNL1        0.2610
     11 O         144.8253  143.8124  166.1443 O.2     1  UNL1       -0.2670
     12 N         143.3230  142.4035  164.5606 N.ar    1  UNL1       -0.2976
     13 C         142.2211  141.4051  164.3629 C.ar    1  UNL1        0.0598
     14 C         141.2189  140.6395  168.1259 C.ar    1  UNL1        0.1804
     15 C         139.7831  140.8593  168.5001 C.ar    1  UNL1        0.1007
     16 C         139.5070  140.0841  169.7543 C.ar    1  UNL1        0.2610
     17 O         138.1959  140.0193  170.4801 O.3     1  UNL1       -0.4900
     18 N         140.7722  139.3852  170.1551 N.ar    1  UNL1       -0.0390
     19 O         141.8302  139.7284  169.1487 O.2     1  UNL1       -0.3504
     20 H         137.4557  140.4919  170.1535 H       1  UNL1        0.2938
     21 N         140.3183  139.5858  161.3932 N.pl3   1  UNL1       -0.3059
     22 C         139.0181  139.9097  160.7188 C.3     1  UNL1        0.0909
     23 C         139.0438  139.3035  159.3470 C.3     1  UNL1        0.0244
     24 C         140.3599  138.6049  159.1736 C.3     1  UNL1        0.0344
     25 C         141.1475  138.7794  160.4382 C.3     1  UNL1        0.0921
     26 C         140.8094  137.8623  157.9503 C.3     1  UNL1        0.0406
     27 N         139.4796  137.5599  157.3259 N.3     1  UNL1       -0.3231
     28 C         141.7208  137.2247  156.9439 C.3     1  UNL1        0.0156
     29 C         142.2954  137.9068  158.1500 C.3     1  UNL1        0.0156
     30 H         138.7352  137.9406  157.9101 H       1  UNL1        0.1188
     31 H         139.3643  136.5497  157.2437 H       1  UNL1        0.1188
     32 C         144.0243  142.9916  163.3722 C.3     1  UNL1        0.0885
     33 C         144.9939  142.8528  162.2361 C.3     1  UNL1        0.0246
     34 C         144.2695  144.1488  162.4499 C.3     1  UNL1        0.0246
@<TRIPOS>BOND
     1     1     2    1
     2     2     3   ar
     3     3    21    1
     4    21    22    1
     5    22    23    1
     6    23    24    1
     7    24    26    1
     8    26    27    1
     9    26    28    1
    10    28    29    1
    11    24    25    1
    12     3     4   ar
    13     4     5    1
    14     4     6   ar
    15     6     7   ar
    16     7     8   ar
    17     8    14    1
    18    14    15   ar
    19    15    16   ar
    20    16    17    1
    21    16    18   ar
    22    18    19   ar
    23     8     9   ar
    24     9    10   ar
    25    10    11    2
    26    10    12   ar
    27    12    32    1
    28    32    33    1
    29    33    34    1
    30    12    13   ar
    31    13     2   ar
    32    25    21    1
    33    13     7   ar
    34    29    26    1
    35    19    14   ar
    36    34    32    1
    37    27    30    1
    38    27    31    1
    39    17    20    1
