@<TRIPOS>MOLECULE
*****
 27 28 0 0 0
SMALL
GASTEIGER

@<TRIPOS>ATOM
      1 C         139.7515  140.9724  166.5826 C.ar    1  UNL1        0.1413
      2 C         140.1852  142.4040  166.4721 C.ar    1  UNL1        0.0370
      3 C         139.6370  143.2715  165.3780 C.ar    1  UNL1        0.0031
      4 C         138.6550  142.7073  164.3945 C.ar    1  UNL1        0.0003
      5 C         138.2213  141.2757  164.5050 C.ar    1  UNL1        0.0059
      6 C         138.7695  140.4082  165.5991 C.ar    1  UNL1        0.0686
      7 C         138.3357  138.9765  165.7095 C.2     1  UNL1        0.1763
      8 O         137.4181  138.5543  166.8184 O.2     1  UNL1       -0.2912
      9 C         138.8196  137.9671  164.7111 C.3     1  UNL1        0.0739
     10 C         140.2311  137.4639  164.7771 C.3     1  UNL1        0.0345
     11 C         141.3762  138.4192  164.6152 C.ar    1  UNL1       -0.0217
     12 C         142.5200  138.3902  165.5851 C.ar    1  UNL1       -0.0043
     13 C         143.6651  139.3455  165.4232 C.ar    1  UNL1       -0.0003
     14 C         143.6664  140.3298  164.2914 C.ar    1  UNL1       -0.0000
     15 C         142.5225  140.3589  163.3214 C.ar    1  UNL1       -0.0003
     16 C         141.3774  139.4036  163.4833 C.ar    1  UNL1       -0.0043
     17 O         140.2997  140.1049  167.6767 O.3     1  UNL1       -0.4727
     18 C         139.7343  140.1989  169.0628 C.3     1  UNL1        0.2358
     19 C         140.5772  139.8192  170.2440 C.3     1  UNL1        0.1697
     20 O         139.9245  139.3752  171.5195 O.3     1  UNL1       -0.3793
     21 H         140.6070  139.1684  172.1770 H       1  UNL1        0.2106
     22 C         142.0729  139.8834  170.1497 C.3     1  UNL1        0.1021
     23 N         142.7223  140.7426  169.1057 N.3     1  UNL1       -0.2953
     24 H         143.4741  140.1892  168.6948 H       1  UNL1        0.1233
     25 C         143.3173  142.0657  169.4870 C.3     1  UNL1        0.0686
     26 C         141.1870  143.5066  169.8556 C.3     1  UNL1        0.0015
     27 C         142.5294  143.0289  170.3246 C.3     1  UNL1        0.0171
@<TRIPOS>BOND
     1    26    27    1
     2    27    25    1
     3    25    23    1
     4    23    22    1
     5    22    19    1
     6    19    20    1
     7    19    18    1
     8    18    17    1
     9    17     1    1
    10     1     2   ar
    11     2     3   ar
    12     3     4   ar
    13     4     5   ar
    14     5     6   ar
    15     6     7    1
    16     7     8    2
    17     7     9    1
    18     9    10    1
    19    10    11    1
    20    11    12   ar
    21    12    13   ar
    22    13    14   ar
    23    14    15   ar
    24    15    16   ar
    25     6     1   ar
    26    16    11   ar
    27    23    24    1
    28    20    21    1
@<TRIPOS>MOLECULE
*****
 27 28 0 0 0
SMALL
GASTEIGER

@<TRIPOS>ATOM
      1 C         143.5567  141.4639  165.4603 C.ar    1  UNL1        0.1413
      2 C         143.9315  140.4580  164.4127 C.ar    1  UNL1        0.0370
      3 C         143.7447  138.9935  164.6782 C.ar    1  UNL1        0.0031
      4 C         143.1830  138.5351  165.9913 C.ar    1  UNL1        0.0003
      5 C         142.8082  139.5410  167.0389 C.ar    1  UNL1        0.0059
      6 C         142.9950  141.0055  166.7734 C.ar    1  UNL1        0.0686
      7 C         142.6202  142.0115  167.8210 C.2     1  UNL1        0.1763
      8 O         143.6871  142.6697  168.6446 O.2     1  UNL1       -0.2912
      9 C         141.1783  142.3592  168.0451 C.3     1  UNL1        0.0739
     10 C         140.2307  142.4136  166.8836 C.3     1  UNL1        0.0345
     11 C         139.7427  141.1428  166.2536 C.ar    1  UNL1       -0.0217
     12 C         139.8844  140.9362  164.7747 C.ar    1  UNL1       -0.0043
     13 C         139.3964  139.6654  164.1448 C.ar    1  UNL1       -0.0003
     14 C         138.7667  138.6011  164.9937 C.ar    1  UNL1       -0.0000
     15 C         138.6249  138.8077  166.4727 C.ar    1  UNL1       -0.0003
     16 C         139.1130  140.0785  167.1027 C.ar    1  UNL1       -0.0043
     17 O         143.7435  142.9284  165.1947 O.3     1  UNL1       -0.4727
     18 C         144.1456  143.3975  163.8279 C.3     1  UNL1        0.2358
     19 C         143.2441  144.3130  163.0539 C.3     1  UNL1        0.1697
     20 O         143.2543  144.2840  161.5542 O.3     1  UNL1       -0.3793
     21 H         142.6183  144.9325  161.2139 H       1  UNL1        0.2106
     22 C         142.3323  145.2575  163.7795 C.3     1  UNL1        0.1021
     23 N         141.1441  145.8427  163.0753 N.3     1  UNL1       -0.2953
     24 H         140.9824  146.7625  163.4854 H       1  UNL1        0.1233
     25 C         139.8291  145.1215  163.0971 C.3     1  UNL1        0.0686
     26 C         137.8748  144.0535  164.4352 C.3     1  UNL1        0.0015
     27 C         139.1355  144.8658  164.4023 C.3     1  UNL1        0.0171
@<TRIPOS>BOND
     1    26    27    1
     2    27    25    1
     3    25    23    1
     4    23    22    1
     5    22    19    1
     6    19    20    1
     7    19    18    1
     8    18    17    1
     9    17     1    1
    10     1     2   ar
    11     2     3   ar
    12     3     4   ar
    13     4     5   ar
    14     5     6   ar
    15     6     7    1
    16     7     8    2
    17     7     9    1
    18     9    10    1
    19    10    11    1
    20    11    12   ar
    21    12    13   ar
    22    13    14   ar
    23    14    15   ar
    24    15    16   ar
    25     6     1   ar
    26    16    11   ar
    27    23    24    1
    28    20    21    1
@<TRIPOS>MOLECULE
*****
 27 28 0 0 0
SMALL
GASTEIGER

@<TRIPOS>ATOM
      1 C         140.2187  142.1812  163.9564 C.ar    1  UNL1        0.1413
      2 C         140.6148  143.6240  163.8501 C.ar    1  UNL1        0.0370
      3 C         139.6087  144.7007  164.1303 C.ar    1  UNL1        0.0031
      4 C         138.2064  144.3346  164.5168 C.ar    1  UNL1        0.0003
      5 C         137.8102  142.8918  164.6231 C.ar    1  UNL1        0.0059
      6 C         138.8164  141.8151  164.3429 C.ar    1  UNL1        0.0686
      7 C         138.4201  140.3723  164.4492 C.2     1  UNL1        0.1763
      8 O         137.9969  139.6184  163.2235 O.2     1  UNL1       -0.2912
      9 C         138.4471  139.6833  165.7814 C.3     1  UNL1        0.0739
     10 C         139.6925  139.7146  166.6169 C.3     1  UNL1        0.0345
     11 C         139.8069  140.6831  167.7566 C.ar    1  UNL1       -0.0217
     12 C         139.2840  140.3111  169.1123 C.ar    1  UNL1       -0.0043
     13 C         139.3985  141.2796  170.2520 C.ar    1  UNL1       -0.0003
     14 C         140.0358  142.6201  170.0359 C.ar    1  UNL1       -0.0000
     15 C         140.5588  142.9922  168.6801 C.ar    1  UNL1       -0.0003
     16 C         140.4443  142.0237  167.5404 C.ar    1  UNL1       -0.0043
     17 O         141.2248  141.1046  163.6762 O.3     1  UNL1       -0.4727
     18 C         141.6955  140.8649  162.2723 C.3     1  UNL1        0.2358
     19 C         141.1112  139.7427  161.4666 C.3     1  UNL1        0.1697
     20 O         139.7229  139.8618  160.9113 O.3     1  UNL1       -0.3793
     21 H         139.5009  139.0556  160.4198 H       1  UNL1        0.2106
     22 C         141.9152  138.5014  161.2162 C.3     1  UNL1        0.1021
     23 N         141.6480  137.2607  162.0159 N.3     1  UNL1       -0.2953
     24 H         141.2640  136.5711  161.3699 H       1  UNL1        0.1233
     25 C         140.7217  137.3131  163.1944 C.3     1  UNL1        0.0686
     26 C         142.4755  138.1079  164.9387 C.3     1  UNL1        0.0015
     27 C         141.2773  137.2768  164.5873 C.3     1  UNL1        0.0171
@<TRIPOS>BOND
     1    26    27    1
     2    27    25    1
     3    25    23    1
     4    23    22    1
     5    22    19    1
     6    19    20    1
     7    19    18    1
     8    18    17    1
     9    17     1    1
    10     1     2   ar
    11     2     3   ar
    12     3     4   ar
    13     4     5   ar
    14     5     6   ar
    15     6     7    1
    16     7     8    2
    17     7     9    1
    18     9    10    1
    19    10    11    1
    20    11    12   ar
    21    12    13   ar
    22    13    14   ar
    23    14    15   ar
    24    15    16   ar
    25     6     1   ar
    26    16    11   ar
    27    23    24    1
    28    20    21    1
@<TRIPOS>MOLECULE
*****
 27 28 0 0 0
SMALL
GASTEIGER

@<TRIPOS>ATOM
      1 C         141.9553  142.9715  165.1853 C.ar    1  UNL1        0.1413
      2 C         143.0984  142.4413  165.9989 C.ar    1  UNL1        0.0370
      3 C         142.8790  142.0374  167.4268 C.ar    1  UNL1        0.0031
      4 C         141.5164  142.1638  168.0410 C.ar    1  UNL1        0.0003
      5 C         140.3732  142.6940  167.2274 C.ar    1  UNL1        0.0059
      6 C         140.5927  143.0979  165.7995 C.ar    1  UNL1        0.0686
      7 C         139.4495  143.6282  164.9859 C.2     1  UNL1        0.1763
      8 O         139.4010  145.0816  164.6185 O.2     1  UNL1       -0.2912
      9 C         138.3547  142.7049  164.5398 C.3     1  UNL1        0.0739
     10 C         138.6775  141.5193  163.6795 C.3     1  UNL1        0.0345
     11 C         138.6758  140.1408  164.2709 C.ar    1  UNL1       -0.0217
     12 C         139.0927  138.9662  163.4364 C.ar    1  UNL1       -0.0043
     13 C         139.0910  137.5877  164.0278 C.ar    1  UNL1       -0.0003
     14 C         138.6724  137.3838  165.4536 C.ar    1  UNL1       -0.0000
     15 C         138.2554  138.5585  166.2882 C.ar    1  UNL1       -0.0003
     16 C         138.2572  139.9370  165.6968 C.ar    1  UNL1       -0.0043
     17 O         142.1747  143.3754  163.7575 O.3     1  UNL1       -0.4727
     18 C         142.8802  142.4458  162.8151 C.3     1  UNL1        0.2358
     19 C         144.3587  142.5770  162.5986 C.3     1  UNL1        0.1697
     20 O         144.9103  143.7852  161.9017 O.3     1  UNL1       -0.3793
     21 H         145.8759  143.7127  161.8444 H       1  UNL1        0.2106
     22 C         145.2855  141.4999  163.0792 C.3     1  UNL1        0.1021
     23 N         144.8606  140.0626  163.0183 N.3     1  UNL1       -0.2953
     24 H         144.1224  140.0033  162.3169 H       1  UNL1        0.1233
     25 C         144.3433  139.3806  164.2500 C.3     1  UNL1        0.0686
     26 C         142.2359  138.8302  165.6664 C.3     1  UNL1        0.0015
     27 C         142.9035  138.9677  164.3301 C.3     1  UNL1        0.0171
@<TRIPOS>BOND
     1    26    27    1
     2    27    25    1
     3    25    23    1
     4    23    22    1
     5    22    19    1
     6    19    20    1
     7    19    18    1
     8    18    17    1
     9    17     1    1
    10     1     2   ar
    11     2     3   ar
    12     3     4   ar
    13     4     5   ar
    14     5     6   ar
    15     6     7    1
    16     7     8    2
    17     7     9    1
    18     9    10    1
    19    10    11    1
    20    11    12   ar
    21    12    13   ar
    22    13    14   ar
    23    14    15   ar
    24    15    16   ar
    25     6     1   ar
    26    16    11   ar
    27    23    24    1
    28    20    21    1
@<TRIPOS>MOLECULE
*****
 27 28 0 0 0
SMALL
GASTEIGER

@<TRIPOS>ATOM
      1 C         140.6990  141.5895  164.1529 C.ar    1  UNL1        0.1413
      2 C         141.5344  142.4295  165.0729 C.ar    1  UNL1        0.0370
      3 C         141.2825  142.4000  166.5513 C.ar    1  UNL1        0.0031
      4 C         140.1954  141.5305  167.1097 C.ar    1  UNL1        0.0003
      5 C         139.3600  140.6904  166.1897 C.ar    1  UNL1        0.0059
      6 C         139.6118  140.7199  164.7113 C.ar    1  UNL1        0.0686
      7 C         138.7764  139.8798  163.7913 C.2     1  UNL1        0.1763
      8 O         137.5792  140.4754  163.1117 O.2     1  UNL1       -0.2912
      9 C         139.1382  138.4441  163.5509 C.3     1  UNL1        0.0739
     10 C         140.1689  137.7761  164.4120 C.3     1  UNL1        0.0345
     11 C         141.5961  138.2355  164.3665 C.ar    1  UNL1       -0.0217
     12 C         142.3310  138.5274  165.6411 C.ar    1  UNL1       -0.0043
     13 C         143.7582  138.9868  165.5956 C.ar    1  UNL1       -0.0003
     14 C         144.4505  139.1542  164.2756 C.ar    1  UNL1       -0.0000
     15 C         143.7156  138.8623  163.0009 C.ar    1  UNL1       -0.0003
     16 C         142.2884  138.4029  163.0464 C.ar    1  UNL1       -0.0043
     17 O         140.9508  141.6190  162.6745 O.3     1  UNL1       -0.4727
     18 C         141.6174  142.8092  162.0508 C.3     1  UNL1        0.2358
     19 C         140.8069  144.0178  161.6871 C.3     1  UNL1        0.1697
     20 O         141.3750  145.3909  161.8911 O.3     1  UNL1       -0.3793
     21 H         140.7268  146.0544  161.6072 H       1  UNL1        0.2106
     22 C         139.4282  143.8532  161.1195 C.3     1  UNL1        0.1021
     23 N         138.3082  143.3764  161.9960 N.3     1  UNL1       -0.2953
     24 H         137.5377  143.1231  161.3776 H       1  UNL1        0.1233
     25 C         137.7399  144.2835  163.0468 C.3     1  UNL1        0.0686
     26 C         138.6414  144.8431  165.4183 C.3     1  UNL1        0.0015
     27 C         137.8836  143.9326  164.4981 C.3     1  UNL1        0.0171
@<TRIPOS>BOND
     1    26    27    1
     2    27    25    1
     3    25    23    1
     4    23    22    1
     5    22    19    1
     6    19    20    1
     7    19    18    1
     8    18    17    1
     9    17     1    1
    10     1     2   ar
    11     2     3   ar
    12     3     4   ar
    13     4     5   ar
    14     5     6   ar
    15     6     7    1
    16     7     8    2
    17     7     9    1
    18     9    10    1
    19    10    11    1
    20    11    12   ar
    21    12    13   ar
    22    13    14   ar
    23    14    15   ar
    24    15    16   ar
    25     6     1   ar
    26    16    11   ar
    27    23    24    1
    28    20    21    1
@<TRIPOS>MOLECULE
*****
 27 28 0 0 0
SMALL
GASTEIGER

@<TRIPOS>ATOM
      1 C         138.8602  139.7952  164.1207 C.ar    1  UNL1        0.1413
      2 C         139.4599  139.6272  162.7562 C.ar    1  UNL1        0.0370
      3 C         140.3210  138.4361  162.4568 C.ar    1  UNL1        0.0031
      4 C         140.5824  137.4128  163.5219 C.ar    1  UNL1        0.0003
      5 C         139.9827  137.5808  164.8865 C.ar    1  UNL1        0.0059
      6 C         139.1216  138.7719  165.1859 C.ar    1  UNL1        0.0686
      7 C         138.5219  138.9398  166.5506 C.2     1  UNL1        0.1763
      8 O         137.2038  138.3013  166.8743 O.2     1  UNL1       -0.2912
      9 C         139.2404  139.7463  167.5914 C.3     1  UNL1        0.0739
     10 C         140.6428  140.2156  167.3407 C.3     1  UNL1        0.0345
     11 C         141.3018  141.1582  168.3036 C.ar    1  UNL1       -0.0217
     12 C         142.7027  140.8951  168.7708 C.ar    1  UNL1       -0.0043
     13 C         143.3617  141.8376  169.7337 C.ar    1  UNL1       -0.0003
     14 C         142.6198  143.0433  170.2296 C.ar    1  UNL1       -0.0000
     15 C         141.2188  143.3064  169.7625 C.ar    1  UNL1       -0.0003
     16 C         140.5598  142.3639  168.7995 C.ar    1  UNL1       -0.0043
     17 O         137.9991  140.9863  164.4201 O.3     1  UNL1       -0.4727
     18 C         137.3452  141.7396  163.2999 C.3     1  UNL1        0.2358
     19 C         137.6777  143.1846  163.0733 C.3     1  UNL1        0.1697
     20 O         137.7608  143.7250  161.6765 O.3     1  UNL1       -0.3793
     21 H         137.9835  144.6686  161.7076 H       1  UNL1        0.2106
     22 C         137.9271  144.0893  164.2436 C.3     1  UNL1        0.1021
     23 N         139.2635  144.0834  164.9247 N.3     1  UNL1       -0.2953
     24 H         139.4679  145.0494  165.1805 H       1  UNL1        0.1233
     25 C         140.4707  143.5618  164.2031 C.3     1  UNL1        0.0686
     26 C         142.2174  141.6397  164.2724 C.3     1  UNL1        0.0015
     27 C         141.5084  142.7758  164.9483 C.3     1  UNL1        0.0171
@<TRIPOS>BOND
     1    26    27    1
     2    27    25    1
     3    25    23    1
     4    23    22    1
     5    22    19    1
     6    19    20    1
     7    19    18    1
     8    18    17    1
     9    17     1    1
    10     1     2   ar
    11     2     3   ar
    12     3     4   ar
    13     4     5   ar
    14     5     6   ar
    15     6     7    1
    16     7     8    2
    17     7     9    1
    18     9    10    1
    19    10    11    1
    20    11    12   ar
    21    12    13   ar
    22    13    14   ar
    23    14    15   ar
    24    15    16   ar
    25     6     1   ar
    26    16    11   ar
    27    23    24    1
    28    20    21    1
@<TRIPOS>MOLECULE
*****
 27 28 0 0 0
SMALL
GASTEIGER

@<TRIPOS>ATOM
      1 C         142.1762  139.6669  163.3142 C.ar    1  UNL1        0.1413
      2 C         143.4885  140.1367  163.8682 C.ar    1  UNL1        0.0370
      3 C         144.0543  139.4967  165.1012 C.ar    1  UNL1        0.0031
      4 C         143.3078  138.3869  165.7802 C.ar    1  UNL1        0.0003
      5 C         141.9955  137.9171  165.2261 C.ar    1  UNL1        0.0059
      6 C         141.4296  138.5571  163.9931 C.ar    1  UNL1        0.0686
      7 C         140.1172  138.0872  163.4391 C.2     1  UNL1        0.1763
      8 O         140.0616  137.4458  162.0843 O.2     1  UNL1       -0.2912
      9 C         138.8606  138.2587  164.2399 C.3     1  UNL1        0.0739
     10 C         138.4666  139.6186  164.7353 C.3     1  UNL1        0.0345
     11 C         139.1099  140.1836  165.9670 C.ar    1  UNL1       -0.0217
     12 C         139.9434  141.4272  165.8746 C.ar    1  UNL1       -0.0043
     13 C         140.5867  141.9921  167.1063 C.ar    1  UNL1       -0.0003
     14 C         140.3966  141.3134  168.4303 C.ar    1  UNL1       -0.0000
     15 C         139.5631  140.0697  168.5227 C.ar    1  UNL1       -0.0003
     16 C         138.9198  139.5047  167.2910 C.ar    1  UNL1       -0.0043
     17 O         141.6103  140.3069  162.0812 O.3     1  UNL1       -0.4727
     18 C         140.6811  141.4780  162.2031 C.3     1  UNL1        0.2358
     19 C         139.3558  141.4601  161.5006 C.3     1  UNL1        0.1697
     20 O         138.6842  140.1532  161.1994 O.3     1  UNL1       -0.3793
     21 H         137.8429  140.3190  160.7460 H       1  UNL1        0.2106
     22 C         138.7022  142.7493  161.0994 C.3     1  UNL1        0.1021
     23 N         137.6006  143.3248  161.9392 N.3     1  UNL1       -0.2953
     24 H         137.6850  144.3396  161.8804 H       1  UNL1        0.1233
     25 C         137.5110  142.9815  163.3966 C.3     1  UNL1        0.0686
     26 C         139.1771  144.7639  164.2896 C.3     1  UNL1        0.0015
     27 C         137.8957  143.9970  164.4314 C.3     1  UNL1        0.0171
@<TRIPOS>BOND
     1    26    27    1
     2    27    25    1
     3    25    23    1
     4    23    22    1
     5    22    19    1
     6    19    20    1
     7    19    18    1
     8    18    17    1
     9    17     1    1
    10     1     2   ar
    11     2     3   ar
    12     3     4   ar
    13     4     5   ar
    14     5     6   ar
    15     6     7    1
    16     7     8    2
    17     7     9    1
    18     9    10    1
    19    10    11    1
    20    11    12   ar
    21    12    13   ar
    22    13    14   ar
    23    14    15   ar
    24    15    16   ar
    25     6     1   ar
    26    16    11   ar
    27    23    24    1
    28    20    21    1
@<TRIPOS>MOLECULE
*****
 27 28 0 0 0
SMALL
GASTEIGER

@<TRIPOS>ATOM
      1 C         141.1805  138.8419  165.2986 C.ar    1  UNL1        0.1413
      2 C         140.3003  137.7891  164.6932 C.ar    1  UNL1        0.0370
      3 C         138.8862  137.6300  165.1676 C.ar    1  UNL1        0.0031
      4 C         138.3523  138.5238  166.2474 C.ar    1  UNL1        0.0003
      5 C         139.2326  139.5767  166.8528 C.ar    1  UNL1        0.0059
      6 C         140.6466  139.7357  166.3784 C.ar    1  UNL1        0.0686
      7 C         141.5269  140.7887  166.9839 C.2     1  UNL1        0.1763
      8 O         142.4137  140.4483  168.1448 O.2     1  UNL1       -0.2912
      9 C         141.5202  142.1821  166.4285 C.3     1  UNL1        0.0739
     10 C         140.2785  143.0188  166.5171 C.3     1  UNL1        0.0345
     11 C         139.5006  143.3403  165.2755 C.ar    1  UNL1       -0.0217
     12 C         139.7984  144.5937  164.5073 C.ar    1  UNL1       -0.0043
     13 C         139.0205  144.9151  163.2657 C.ar    1  UNL1       -0.0003
     14 C         137.9447  143.9832  162.7923 C.ar    1  UNL1       -0.0000
     15 C         137.6468  142.7297  163.5606 C.ar    1  UNL1       -0.0003
     16 C         138.4248  142.4082  164.8021 C.ar    1  UNL1       -0.0043
     17 O         142.5946  139.0010  164.8243 O.3     1  UNL1       -0.4727
     18 C         142.8846  139.7889  163.5813 C.3     1  UNL1        0.2358
     19 C         144.2765  139.8244  163.0234 C.3     1  UNL1        0.1697
     20 O         144.6500  138.9263  161.8816 O.3     1  UNL1       -0.3793
     21 H         145.5790  139.0739  161.6446 H       1  UNL1        0.2106
     22 C         145.2950  140.7581  163.6075 C.3     1  UNL1        0.1021
     23 N         145.7811  141.9317  162.8098 N.3     1  UNL1       -0.2953
     24 H         146.2392  142.5643  163.4659 H       1  UNL1        0.1233
     25 C         144.8084  142.7567  162.0205 C.3     1  UNL1        0.0686
     26 C         143.6279  144.0586  163.9340 C.3     1  UNL1        0.0015
     27 C         144.2849  144.0438  162.5856 C.3     1  UNL1        0.0171
@<TRIPOS>BOND
     1    26    27    1
     2    27    25    1
     3    25    23    1
     4    23    22    1
     5    22    19    1
     6    19    20    1
     7    19    18    1
     8    18    17    1
     9    17     1    1
    10     1     2   ar
    11     2     3   ar
    12     3     4   ar
    13     4     5   ar
    14     5     6   ar
    15     6     7    1
    16     7     8    2
    17     7     9    1
    18     9    10    1
    19    10    11    1
    20    11    12   ar
    21    12    13   ar
    22    13    14   ar
    23    14    15   ar
    24    15    16   ar
    25     6     1   ar
    26    16    11   ar
    27    23    24    1
    28    20    21    1
@<TRIPOS>MOLECULE
*****
 27 28 0 0 0
SMALL
GASTEIGER

@<TRIPOS>ATOM
      1 C         138.7603  139.0245  163.1695 C.ar    1  UNL1        0.1413
      2 C         138.9216  137.6492  163.7462 C.ar    1  UNL1        0.0370
      3 C         138.7359  137.4265  165.2179 C.ar    1  UNL1        0.0031
      4 C         138.3888  138.5790  166.1129 C.ar    1  UNL1        0.0003
      5 C         138.2275  139.9543  165.5363 C.ar    1  UNL1        0.0059
      6 C         138.4132  140.1770  164.0646 C.ar    1  UNL1        0.0686
      7 C         138.2519  141.5524  163.4879 C.2     1  UNL1        0.1763
      8 O         136.9718  141.9341  162.8055 O.2     1  UNL1       -0.2912
      9 C         139.3707  142.5459  163.5937 C.3     1  UNL1        0.0739
     10 C         139.5981  143.2853  164.8788 C.3     1  UNL1        0.0345
     11 C         140.7495  142.9125  165.7650 C.ar    1  UNL1       -0.0217
     12 C         142.1457  142.9035  165.2167 C.ar    1  UNL1       -0.0043
     13 C         143.2971  142.5306  166.1028 C.ar    1  UNL1       -0.0003
     14 C         143.0523  142.1668  167.5372 C.ar    1  UNL1       -0.0000
     15 C         141.6561  142.1757  168.0856 C.ar    1  UNL1       -0.0003
     16 C         140.5047  142.5486  167.1995 C.ar    1  UNL1       -0.0043
     17 O         138.9460  139.2472  161.6978 O.3     1  UNL1       -0.4727
     18 C         140.2903  139.6432  161.1630 C.3     1  UNL1        0.2358
     19 C         141.1147  138.6513  160.3972 C.3     1  UNL1        0.1697
     20 O         140.7801  138.3425  158.9680 O.3     1  UNL1       -0.3793
     21 H         141.4062  137.6864  158.6238 H       1  UNL1        0.2106
     22 C         142.2737  137.9682  161.0606 C.3     1  UNL1        0.1021
     23 N         142.2025  137.6146  162.5166 N.3     1  UNL1       -0.2953
     24 H         141.2142  137.6027  162.7687 H       1  UNL1        0.1233
     25 C         142.8981  138.4724  163.5316 C.3     1  UNL1        0.0686
     26 C         142.1339  138.9339  165.9715 C.3     1  UNL1        0.0015
     27 C         142.0950  139.2756  164.5114 C.3     1  UNL1        0.0171
@<TRIPOS>BOND
     1    26    27    1
     2    27    25    1
     3    25    23    1
     4    23    22    1
     5    22    19    1
     6    19    20    1
     7    19    18    1
     8    18    17    1
     9    17     1    1
    10     1     2   ar
    11     2     3   ar
    12     3     4   ar
    13     4     5   ar
    14     5     6   ar
    15     6     7    1
    16     7     8    2
    17     7     9    1
    18     9    10    1
    19    10    11    1
    20    11    12   ar
    21    12    13   ar
    22    13    14   ar
    23    14    15   ar
    24    15    16   ar
    25     6     1   ar
    26    16    11   ar
    27    23    24    1
    28    20    21    1
