@<TRIPOS>MOLECULE
*****
 34 37 0 0 0
SMALL
GASTEIGER

@<TRIPOS>ATOM
      1 C         141.3584  141.0339  163.1953 C.3     1  UNL1        0.0401
      2 C         140.9945  141.7116  161.9075 C.3     1  UNL1        0.0765
      3 N         142.1619  142.5502  161.4789 N.3     1  UNL1       -0.2723
      4 C         143.2474  142.3909  162.5018 C.3     1  UNL1        0.0729
      5 C         142.7508  141.4537  163.5626 C.3     1  UNL1        0.0305
      6 C         138.7338  138.2331  165.5442 C.ar    1  UNL1        0.1387
      7 C         139.9168  137.6991  164.7924 C.ar    1  UNL1        0.0366
      8 C         140.7917  138.6327  164.0094 C.ar    1  UNL1       -0.0011
      9 C         140.4835  140.1003  163.9782 C.ar    1  UNL1       -0.0209
     10 C         139.3005  140.6344  164.7301 C.ar    1  UNL1       -0.0011
     11 C         138.4257  139.7008  165.5130 C.ar    1  UNL1        0.0366
     12 C         137.0506  137.8183  167.4792 C.3     1  UNL1        0.2525
     13 O         137.8590  137.2995  166.3271 O.3     1  UNL1       -0.4714
     14 C         142.2316  143.3992  160.2443 C.3     1  UNL1        0.0739
     15 C         141.1278  144.3669  159.9363 C.3     1  UNL1        0.0388
     16 C         140.7579  145.4247  160.9334 C.3     1  UNL1        0.0948
     17 N         140.1475  145.0361  162.2474 N.am    1  UNL1       -0.2795
     18 C         138.7392  144.5659  162.4606 C.3     1  UNL1        0.0939
     19 C         138.5596  144.2887  163.9238 C.3     1  UNL1        0.0311
     20 C         139.8570  144.5875  164.6149 C.3     1  UNL1        0.0870
     21 C         140.8384  145.0495  163.5788 C.2     1  UNL1        0.2257
     22 O         142.2608  145.4538  163.8299 O.2     1  UNL1       -0.2749
     23 C         143.5128  141.0137  164.7773 C.3     1  UNL1        0.0871
     24 C         142.9173  141.1935  166.1422 C.2     1  UNL1        0.2262
     25 O         142.6990  142.5730  166.6895 O.2     1  UNL1       -0.2748
     26 N         142.5401  139.9939  166.9599 N.am    1  UNL1       -0.2839
     27 H         142.6833  139.0885  166.6008 H       1  UNL1        0.1549
     28 C         141.9445  140.1738  168.3248 C.ar    1  UNL1        0.0511
     29 C         142.8362  140.4184  169.5059 C.ar    1  UNL1        0.0147
     30 C         142.2407  140.5983  170.8708 C.ar    1  UNL1        0.0021
     31 C         140.7535  140.5335  171.0547 C.ar    1  UNL1        0.0115
     32 C         139.8617  140.2889  169.8736 C.ar    1  UNL1        0.0589
     33 CL        138.3744  140.2241  170.0574 Cl      1  UNL1       -0.0822
     34 C         140.4573  140.1090  168.5087 C.ar    1  UNL1        0.0261
@<TRIPOS>BOND
     1    12    13    1
     2    13     6    1
     3     6     7   ar
     4     7     8   ar
     5     8     9   ar
     6     1     9    1
     7     1     2    1
     8     2     3    1
     9     3    14    1
    10    14    15    1
    11    15    16    1
    12    16    17    1
    13    17    18    1
    14    18    19    1
    15    19    20    1
    16    20    21    1
    17    21    22    2
    18     3     4    1
    19     4     5    1
    20     5    23    1
    21    23    24    1
    22    24    25    2
    23    24    26   am
    24    26    28    1
    25    28    29   ar
    26    29    30   ar
    27    30    31   ar
    28    31    32   ar
    29    32    33    1
    30    32    34   ar
    31     9    10   ar
    32    10    11   ar
    33    11     6   ar
    34     5     1    1
    35    34    28   ar
    36    21    17   am
    37    26    27    1
@<TRIPOS>MOLECULE
*****
 34 37 0 0 0
SMALL
GASTEIGER

@<TRIPOS>ATOM
      1 C         139.3229  141.6103  165.9009 C.3     1  UNL1        0.0401
      2 C         139.7383  141.8128  167.3279 C.3     1  UNL1        0.0765
      3 N         139.6325  140.4932  168.0333 N.3     1  UNL1       -0.2723
      4 C         139.1516  139.4751  167.0422 C.3     1  UNL1        0.0729
      5 C         138.9603  140.1655  165.7243 C.3     1  UNL1        0.0305
      6 C         139.1881  144.7804  162.7099 C.ar    1  UNL1        0.1387
      7 C         140.5047  144.2046  163.1399 C.ar    1  UNL1        0.0366
      8 C         140.5496  143.1479  164.2036 C.ar    1  UNL1       -0.0011
      9 C         139.2780  142.6670  164.8372 C.ar    1  UNL1       -0.0209
     10 C         137.9614  143.2428  164.4072 C.ar    1  UNL1       -0.0011
     11 C         137.9164  144.2995  163.3436 C.ar    1  UNL1        0.0366
     12 C         140.1329  145.8097  160.5195 C.3     1  UNL1        0.2525
     13 O         139.1431  145.8371  161.6462 O.3     1  UNL1       -0.4714
     14 C         139.9515  140.2368  169.4763 C.3     1  UNL1        0.0739
     15 C         141.3803  140.1625  169.9268 C.3     1  UNL1        0.0388
     16 C         142.4416  139.6872  168.9794 C.3     1  UNL1        0.0948
     17 N         142.8049  140.5162  167.7831 N.am    1  UNL1       -0.2795
     18 C         143.1510  141.9756  167.7939 C.3     1  UNL1        0.0939
     19 C         143.4458  142.3926  166.3836 C.3     1  UNL1        0.0311
     20 C         143.2818  141.1908  165.5010 C.3     1  UNL1        0.0870
     21 C         142.8857  140.0311  166.3660 C.2     1  UNL1        0.2257
     22 O         142.6176  138.6320  165.8963 O.2     1  UNL1       -0.2749
     23 C         138.4891  139.5238  164.4530 C.3     1  UNL1        0.0871
     24 C         139.4132  139.4241  163.2758 C.2     1  UNL1        0.2262
     25 O         138.8555  139.4119  161.8834 O.2     1  UNL1       -0.2748
     26 N         140.8952  139.3367  163.4908 N.am    1  UNL1       -0.2839
     27 H         141.2613  139.3447  164.4047 H       1  UNL1        0.1549
     28 C         141.8193  139.2371  162.3135 C.ar    1  UNL1        0.0511
     29 C         142.1501  137.8949  161.7312 C.ar    1  UNL1        0.0147
     30 C         143.0742  137.7952  160.5539 C.ar    1  UNL1        0.0021
     31 C         143.6675  139.0377  159.9588 C.ar    1  UNL1        0.0115
     32 C         143.3366  140.3799  160.5411 C.ar    1  UNL1        0.0589
     33 CL        143.9299  141.6225  159.9460 Cl      1  UNL1       -0.0822
     34 C         142.4125  140.4795  161.7184 C.ar    1  UNL1        0.0261
@<TRIPOS>BOND
     1    12    13    1
     2    13     6    1
     3     6     7   ar
     4     7     8   ar
     5     8     9   ar
     6     1     9    1
     7     1     2    1
     8     2     3    1
     9     3    14    1
    10    14    15    1
    11    15    16    1
    12    16    17    1
    13    17    18    1
    14    18    19    1
    15    19    20    1
    16    20    21    1
    17    21    22    2
    18     3     4    1
    19     4     5    1
    20     5    23    1
    21    23    24    1
    22    24    25    2
    23    24    26   am
    24    26    28    1
    25    28    29   ar
    26    29    30   ar
    27    30    31   ar
    28    31    32   ar
    29    32    33    1
    30    32    34   ar
    31     9    10   ar
    32    10    11   ar
    33    11     6   ar
    34     5     1    1
    35    34    28   ar
    36    21    17   am
    37    26    27    1
@<TRIPOS>MOLECULE
*****
 34 37 0 0 0
SMALL
GASTEIGER

@<TRIPOS>ATOM
      1 C         141.9528  139.5379  163.0119 C.3     1  UNL1        0.0401
      2 C         141.8755  139.7443  161.5282 C.3     1  UNL1        0.0765
      3 N         143.2755  139.8677  161.0038 N.3     1  UNL1       -0.2723
      4 C         144.2179  139.7377  162.1634 C.3     1  UNL1        0.0729
      5 C         143.4005  139.5338  163.4045 C.3     1  UNL1        0.0305
      6 C         138.4555  139.0216  165.7963 C.ar    1  UNL1        0.1387
      7 C         138.8322  140.3900  165.3110 C.ar    1  UNL1        0.0366
      8 C         139.9980  140.5621  164.3829 C.ar    1  UNL1       -0.0011
      9 C         140.7870  139.3658  163.9400 C.ar    1  UNL1       -0.0209
     10 C         140.4103  137.9974  164.4252 C.ar    1  UNL1       -0.0011
     11 C         139.2446  137.8253  165.3534 C.ar    1  UNL1        0.0366
     12 C         137.0677  137.5362  167.4141 C.3     1  UNL1        0.2525
     13 O         137.2898  138.8495  166.7244 O.3     1  UNL1       -0.4714
     14 C         143.6646  140.0834  159.5713 C.3     1  UNL1        0.0739
     15 C         143.6236  141.4624  158.9825 C.3     1  UNL1        0.0388
     16 C         143.9325  142.6536  159.8402 C.3     1  UNL1        0.0948
     17 N         143.0015  143.0392  160.9514 N.am    1  UNL1       -0.2795
     18 C         141.5258  143.2753  160.8233 C.3     1  UNL1        0.0939
     19 C         140.9951  143.6385  162.1785 C.3     1  UNL1        0.0311
     20 C         142.1429  143.6268  163.1441 C.3     1  UNL1        0.0870
     21 C         143.3830  143.2565  162.3857 C.2     1  UNL1        0.2257
     22 O         144.7622  143.1262  162.9608 O.2     1  UNL1       -0.2749
     23 C         143.9366  139.3569  164.7942 C.3     1  UNL1        0.0871
     24 C         143.2879  140.0679  165.9445 C.2     1  UNL1        0.2262
     25 O         143.1030  141.5559  165.8986 O.2     1  UNL1       -0.2748
     26 N         142.8239  139.2912  167.1410 N.am    1  UNL1       -0.2839
     27 H         142.9452  138.3147  167.1712 H       1  UNL1        0.1549
     28 C         142.1751  140.0023  168.2914 C.ar    1  UNL1        0.0511
     29 C         142.9950  140.8823  169.1877 C.ar    1  UNL1        0.0147
     30 C         142.3462  141.5935  170.3381 C.ar    1  UNL1        0.0021
     31 C         140.8776  141.4246  170.5922 C.ar    1  UNL1        0.0115
     32 C         140.0577  140.5447  169.6958 C.ar    1  UNL1        0.0589
     33 CL        138.5890  140.3758  169.9499 Cl      1  UNL1       -0.0822
     34 C         140.7065  139.8335  168.5454 C.ar    1  UNL1        0.0261
@<TRIPOS>BOND
     1    12    13    1
     2    13     6    1
     3     6     7   ar
     4     7     8   ar
     5     8     9   ar
     6     1     9    1
     7     1     2    1
     8     2     3    1
     9     3    14    1
    10    14    15    1
    11    15    16    1
    12    16    17    1
    13    17    18    1
    14    18    19    1
    15    19    20    1
    16    20    21    1
    17    21    22    2
    18     3     4    1
    19     4     5    1
    20     5    23    1
    21    23    24    1
    22    24    25    2
    23    24    26   am
    24    26    28    1
    25    28    29   ar
    26    29    30   ar
    27    30    31   ar
    28    31    32   ar
    29    32    33    1
    30    32    34   ar
    31     9    10   ar
    32    10    11   ar
    33    11     6   ar
    34     5     1    1
    35    34    28   ar
    36    21    17   am
    37    26    27    1
@<TRIPOS>MOLECULE
*****
 34 37 0 0 0
SMALL
GASTEIGER

@<TRIPOS>ATOM
      1 C         141.5745  138.7695  162.5079 C.3     1  UNL1        0.0401
      2 C         141.3495  138.6013  161.0345 C.3     1  UNL1        0.0765
      3 N         142.6844  138.6557  160.3525 N.3     1  UNL1       -0.2723
      4 C         143.7344  138.8575  161.4045 C.3     1  UNL1        0.0729
      5 C         143.0485  138.9278  162.7366 C.3     1  UNL1        0.0305
      6 C         138.3872  138.7947  165.6845 C.ar    1  UNL1        0.1387
      7 C         138.6388  140.0253  164.8647 C.ar    1  UNL1        0.0366
      8 C         139.7012  140.0170  163.8059 C.ar    1  UNL1       -0.0011
      9 C         140.5121  138.7779  163.5668 C.ar    1  UNL1       -0.0209
     10 C         140.2605  137.5472  164.3866 C.ar    1  UNL1       -0.0011
     11 C         139.1981  137.5556  165.4454 C.ar    1  UNL1        0.0366
     12 C         136.9993  137.5430  167.4892 C.3     1  UNL1        0.2525
     13 O         137.3248  138.8030  166.7434 O.3     1  UNL1       -0.4714
     14 C         142.9267  138.5303  158.8775 C.3     1  UNL1        0.0739
     15 C         141.8371  138.8764  157.9064 C.3     1  UNL1        0.0388
     16 C         141.9785  138.5100  156.4588 C.3     1  UNL1        0.0948
     17 N         142.4286  137.1315  156.0746 N.am    1  UNL1       -0.2795
     18 C         141.5679  135.9040  156.0283 C.3     1  UNL1        0.0939
     19 C         142.4257  134.7525  155.5944 C.3     1  UNL1        0.0311
     20 C         143.8165  135.2685  155.3724 C.3     1  UNL1        0.0870
     21 C         143.8183  136.7389  155.6692 C.2     1  UNL1        0.2257
     22 O         145.0020  137.6555  155.5769 O.2     1  UNL1       -0.2749
     23 C         143.7189  139.1223  164.0643 C.3     1  UNL1        0.0871
     24 C         143.0914  140.0090  165.0986 C.2     1  UNL1        0.2262
     25 O         142.7314  141.4241  164.7548 O.2     1  UNL1       -0.2748
     26 N         142.8237  139.4808  166.4768 N.am    1  UNL1       -0.2839
     27 H         143.0599  138.5521  166.7025 H       1  UNL1        0.1549
     28 C         142.1962  140.3676  167.5111 C.ar    1  UNL1        0.0511
     29 C         142.8971  141.6186  167.9515 C.ar    1  UNL1        0.0147
     30 C         142.2695  142.5054  168.9858 C.ar    1  UNL1        0.0021
     31 C         140.9412  142.1413  169.5797 C.ar    1  UNL1        0.0115
     32 C         140.2403  140.8904  169.1394 C.ar    1  UNL1        0.0589
     33 CL        138.9118  140.5262  169.7333 Cl      1  UNL1       -0.0822
     34 C         140.8678  140.0036  168.1051 C.ar    1  UNL1        0.0261
@<TRIPOS>BOND
     1    12    13    1
     2    13     6    1
     3     6     7   ar
     4     7     8   ar
     5     8     9   ar
     6     1     9    1
     7     1     2    1
     8     2     3    1
     9     3    14    1
    10    14    15    1
    11    15    16    1
    12    16    17    1
    13    17    18    1
    14    18    19    1
    15    19    20    1
    16    20    21    1
    17    21    22    2
    18     3     4    1
    19     4     5    1
    20     5    23    1
    21    23    24    1
    22    24    25    2
    23    24    26   am
    24    26    28    1
    25    28    29   ar
    26    29    30   ar
    27    30    31   ar
    28    31    32   ar
    29    32    33    1
    30    32    34   ar
    31     9    10   ar
    32    10    11   ar
    33    11     6   ar
    34     5     1    1
    35    34    28   ar
    36    21    17   am
    37    26    27    1
@<TRIPOS>MOLECULE
*****
 34 37 0 0 0
SMALL
GASTEIGER

@<TRIPOS>ATOM
      1 C         143.0334  140.7459  165.5818 C.3     1  UNL1        0.0401
      2 C         142.5051  139.8711  166.6798 C.3     1  UNL1        0.0765
      3 N         142.6323  140.6216  167.9723 N.3     1  UNL1       -0.2723
      4 C         143.2393  141.9603  167.6731 C.3     1  UNL1        0.0729
      5 C         143.4872  142.0371  166.1957 C.3     1  UNL1        0.0305
      6 C         143.2237  139.6832  161.2132 C.ar    1  UNL1        0.1387
      7 C         144.4871  139.7912  162.0145 C.ar    1  UNL1        0.0366
      8 C         144.4236  140.1455  163.4707 C.ar    1  UNL1       -0.0011
      9 C         143.0968  140.3917  164.1256 C.ar    1  UNL1       -0.0209
     10 C         141.8335  140.2836  163.3243 C.ar    1  UNL1       -0.0011
     11 C         141.8969  139.9294  161.8681 C.ar    1  UNL1        0.0366
     12 C         142.8960  137.9543  159.3018 C.3     1  UNL1        0.2525
     13 O         143.2871  139.3290  159.7570 O.3     1  UNL1       -0.4714
     14 C         142.2242  140.1213  169.3262 C.3     1  UNL1        0.0739
     15 C         140.7755  139.8806  169.6315 C.3     1  UNL1        0.0388
     16 C         139.7202  140.7108  168.9628 C.3     1  UNL1        0.0948
     17 N         139.2358  140.3452  167.5909 N.am    1  UNL1       -0.2795
     18 C         138.5207  139.0810  167.2162 C.3     1  UNL1        0.0939
     19 C         138.2245  139.1342  165.7467 C.3     1  UNL1        0.0311
     20 C         138.7566  140.4312  165.2133 C.3     1  UNL1        0.0870
     21 C         139.3816  141.1797  166.3531 C.2     1  UNL1        0.2257
     22 O         140.0373  142.5262  166.2696 O.2     1  UNL1       -0.2749
     23 C         144.0841  143.2008  165.4612 C.3     1  UNL1        0.0871
     24 C         143.4339  143.7110  164.2095 C.2     1  UNL1        0.2262
     25 O         144.2779  144.1176  163.0380 O.2     1  UNL1       -0.2748
     26 N         141.9396  143.8148  164.1292 N.am    1  UNL1       -0.2839
     27 H         141.3856  143.5480  164.8981 H       1  UNL1        0.1549
     28 C         141.2895  144.3251  162.8775 C.ar    1  UNL1        0.0511
     29 C         140.5795  145.6465  162.8861 C.ar    1  UNL1        0.0147
     30 C         139.9294  146.1567  161.6344 C.ar    1  UNL1        0.0021
     31 C         139.9891  145.3458  160.3739 C.ar    1  UNL1        0.0115
     32 C         140.6991  144.0245  160.3653 C.ar    1  UNL1        0.0589
     33 CL        140.7588  143.2134  159.1048 Cl      1  UNL1       -0.0822
     34 C         141.3492  143.5142  161.6170 C.ar    1  UNL1        0.0261
@<TRIPOS>BOND
     1    12    13    1
     2    13     6    1
     3     6     7   ar
     4     7     8   ar
     5     8     9   ar
     6     1     9    1
     7     1     2    1
     8     2     3    1
     9     3    14    1
    10    14    15    1
    11    15    16    1
    12    16    17    1
    13    17    18    1
    14    18    19    1
    15    19    20    1
    16    20    21    1
    17    21    22    2
    18     3     4    1
    19     4     5    1
    20     5    23    1
    21    23    24    1
    22    24    25    2
    23    24    26   am
    24    26    28    1
    25    28    29   ar
    26    29    30   ar
    27    30    31   ar
    28    31    32   ar
    29    32    33    1
    30    32    34   ar
    31     9    10   ar
    32    10    11   ar
    33    11     6   ar
    34     5     1    1
    35    34    28   ar
    36    21    17   am
    37    26    27    1
@<TRIPOS>MOLECULE
*****
 34 37 0 0 0
SMALL
GASTEIGER

@<TRIPOS>ATOM
      1 C         141.3981  138.3375  160.5482 C.3     1  UNL1        0.0401
      2 C         142.2645  137.9973  159.3720 C.3     1  UNL1        0.0765
      3 N         141.4331  138.1281  158.1304 N.3     1  UNL1       -0.2723
      4 C         140.0526  138.5491  158.5393 C.3     1  UNL1        0.0729
      5 C         140.0310  138.6786  160.0335 C.3     1  UNL1        0.0305
      6 C         142.6754  138.3354  164.8631 C.ar    1  UNL1        0.1387
      7 C         141.5793  137.4197  164.4050 C.ar    1  UNL1        0.0366
      8 C         141.1535  137.4204  162.9667 C.ar    1  UNL1       -0.0011
      9 C         141.8238  138.3368  161.9865 C.ar    1  UNL1       -0.0209
     10 C         142.9199  139.2526  162.4447 C.ar    1  UNL1       -0.0011
     11 C         143.3457  139.2519  163.8830 C.ar    1  UNL1        0.0366
     12 C         142.6106  139.4063  167.2293 C.3     1  UNL1        0.2525
     13 O         143.1012  138.3347  166.3014 O.3     1  UNL1       -0.4714
     14 C         141.9000  137.8812  156.7265 C.3     1  UNL1        0.0739
     15 C         142.8045  136.7219  156.4300 C.3     1  UNL1        0.0388
     16 C         142.2313  135.3449  156.2713 C.3     1  UNL1        0.0948
     17 N         143.1140  134.1423  156.4290 N.am    1  UNL1       -0.2795
     18 C         143.4409  133.1423  155.3599 C.3     1  UNL1        0.0939
     19 C         144.3537  132.1106  155.9537 C.3     1  UNL1        0.0311
     20 C         144.5908  132.4730  157.3897 C.3     1  UNL1        0.0870
     21 C         143.8247  133.7287  157.6835 C.2     1  UNL1        0.2257
     22 O         143.7775  134.4450  159.0006 O.2     1  UNL1       -0.2749
     23 C         138.8497  139.0788  160.8668 C.3     1  UNL1        0.0871
     24 C         138.7808  140.4555  161.4581 C.2     1  UNL1        0.2262
     25 O         138.1652  141.5778  160.6759 O.2     1  UNL1       -0.2748
     26 N         139.3275  140.7103  162.8315 N.am    1  UNL1       -0.2839
     27 H         139.7316  139.9738  163.3448 H       1  UNL1        0.1549
     28 C         139.2586  142.0871  163.4227 C.ar    1  UNL1        0.0511
     29 C         137.9788  142.5787  164.0314 C.ar    1  UNL1        0.0147
     30 C         137.9099  143.9556  164.6226 C.ar    1  UNL1        0.0021
     31 C         139.1207  144.8408  164.6052 C.ar    1  UNL1        0.0115
     32 C         140.4004  144.3492  163.9965 C.ar    1  UNL1        0.0589
     33 CL        141.6113  145.2344  163.9790 Cl      1  UNL1       -0.0822
     34 C         140.4694  142.9723  163.4052 C.ar    1  UNL1        0.0261
@<TRIPOS>BOND
     1    12    13    1
     2    13     6    1
     3     6     7   ar
     4     7     8   ar
     5     8     9   ar
     6     1     9    1
     7     1     2    1
     8     2     3    1
     9     3    14    1
    10    14    15    1
    11    15    16    1
    12    16    17    1
    13    17    18    1
    14    18    19    1
    15    19    20    1
    16    20    21    1
    17    21    22    2
    18     3     4    1
    19     4     5    1
    20     5    23    1
    21    23    24    1
    22    24    25    2
    23    24    26   am
    24    26    28    1
    25    28    29   ar
    26    29    30   ar
    27    30    31   ar
    28    31    32   ar
    29    32    33    1
    30    32    34   ar
    31     9    10   ar
    32    10    11   ar
    33    11     6   ar
    34     5     1    1
    35    34    28   ar
    36    21    17   am
    37    26    27    1
@<TRIPOS>MOLECULE
*****
 34 37 0 0 0
SMALL
GASTEIGER

@<TRIPOS>ATOM
      1 C         141.7759  138.1152  158.0212 C.3     1  UNL1        0.0401
      2 C         142.2870  137.2069  156.9425 C.3     1  UNL1        0.0765
      3 N         141.1159  136.7619  156.1176 N.3     1  UNL1       -0.2723
      4 C         139.8809  137.3953  156.6865 C.3     1  UNL1        0.0729
      5 C         140.2888  138.2317  157.8630 C.3     1  UNL1        0.0305
      6 C         144.2663  140.1361  161.1777 C.ar    1  UNL1        0.1387
      7 C         143.8723  138.6980  161.3401 C.ar    1  UNL1        0.0366
      8 C         143.0421  138.0244  160.2880 C.ar    1  UNL1       -0.0011
      9 C         142.6060  138.7889  159.0734 C.ar    1  UNL1       -0.0209
     10 C         143.0001  140.2270  158.9109 C.ar    1  UNL1       -0.0011
     11 C         143.8303  140.9006  159.9631 C.ar    1  UNL1        0.0366
     12 C         144.8902  142.2648  162.5303 C.3     1  UNL1        0.2525
     13 O         145.0965  140.8097  162.2299 O.3     1  UNL1       -0.4714
     14 C         141.1702  135.8447  154.9320 C.3     1  UNL1        0.0739
     15 C         142.2951  134.8620  154.7950 C.3     1  UNL1        0.0388
     16 C         142.1015  133.4365  155.2198 C.3     1  UNL1        0.0948
     17 N         143.2463  132.6679  155.8107 N.am    1  UNL1       -0.2795
     18 C         143.9016  131.4604  155.2087 C.3     1  UNL1        0.0939
     19 C         144.9970  131.0182  156.1331 C.3     1  UNL1        0.0311
     20 C         145.0186  131.9525  157.3065 C.3     1  UNL1        0.0870
     21 C         143.9366  132.9721  157.1072 C.2     1  UNL1        0.2257
     22 O         143.6035  134.0981  158.0405 O.2     1  UNL1       -0.2749
     23 C         139.3708  139.0422  158.7292 C.3     1  UNL1        0.0871
     24 C         139.5964  139.1025  160.2108 C.2     1  UNL1        0.2262
     25 O         140.0285  140.3879  160.8520 O.2     1  UNL1       -0.2748
     26 N         139.3900  137.8774  161.0514 N.am    1  UNL1       -0.2839
     27 H         139.1065  137.0337  160.6306 H       1  UNL1        0.1549
     28 C         139.6157  137.9378  162.5331 C.ar    1  UNL1        0.0511
     29 C         140.7935  137.2358  163.1416 C.ar    1  UNL1        0.0147
     30 C         141.0191  137.2962  164.6233 C.ar    1  UNL1        0.0021
     31 C         140.0672  138.0584  165.4965 C.ar    1  UNL1        0.0115
     32 C         138.8895  138.7604  164.8880 C.ar    1  UNL1        0.0589
     33 CL        137.9374  139.5228  165.7613 Cl      1  UNL1       -0.0822
     34 C         138.6638  138.7001  163.4064 C.ar    1  UNL1        0.0261
@<TRIPOS>BOND
     1    12    13    1
     2    13     6    1
     3     6     7   ar
     4     7     8   ar
     5     8     9   ar
     6     1     9    1
     7     1     2    1
     8     2     3    1
     9     3    14    1
    10    14    15    1
    11    15    16    1
    12    16    17    1
    13    17    18    1
    14    18    19    1
    15    19    20    1
    16    20    21    1
    17    21    22    2
    18     3     4    1
    19     4     5    1
    20     5    23    1
    21    23    24    1
    22    24    25    2
    23    24    26   am
    24    26    28    1
    25    28    29   ar
    26    29    30   ar
    27    30    31   ar
    28    31    32   ar
    29    32    33    1
    30    32    34   ar
    31     9    10   ar
    32    10    11   ar
    33    11     6   ar
    34     5     1    1
    35    34    28   ar
    36    21    17   am
    37    26    27    1
@<TRIPOS>MOLECULE
*****
 34 37 0 0 0
SMALL
GASTEIGER

@<TRIPOS>ATOM
      1 C         140.2341  141.4214  167.2577 C.3     1  UNL1        0.0401
      2 C         139.7439  140.0047  167.3076 C.3     1  UNL1        0.0765
      3 N         138.8867  139.7679  166.0997 N.3     1  UNL1       -0.2723
      4 C         138.8471  141.0384  165.3032 C.3     1  UNL1        0.0729
      5 C         139.6798  142.0603  166.0190 C.3     1  UNL1        0.0305
      6 C         142.8996  143.4065  170.2917 C.ar    1  UNL1        0.1387
      7 C         143.4717  142.4068  169.3307 C.ar    1  UNL1        0.0366
      8 C         142.5832  141.7451  168.3194 C.ar    1  UNL1       -0.0011
      9 C         141.1226  142.0831  168.2690 C.ar    1  UNL1       -0.0209
     10 C         140.5506  143.0827  169.2300 C.ar    1  UNL1       -0.0011
     11 C         141.4391  143.7444  170.2413 C.ar    1  UNL1        0.0366
     12 C         145.2627  144.1754  171.0498 C.3     1  UNL1        0.2525
     13 O         143.7881  144.0682  171.3030 O.3     1  UNL1       -0.4714
     14 C         138.1912  138.4858  165.7497 C.3     1  UNL1        0.0739
     15 C         138.9378  137.3983  165.0357 C.3     1  UNL1        0.0388
     16 C         139.5873  137.6783  163.7129 C.3     1  UNL1        0.0948
     17 N         141.0410  138.0436  163.6536 N.am    1  UNL1       -0.2795
     18 C         141.8824  138.5029  164.8073 C.3     1  UNL1        0.0939
     19 C         143.2699  138.7568  164.2969 C.3     1  UNL1        0.0311
     20 C         143.2860  138.4544  162.8278 C.3     1  UNL1        0.0870
     21 C         141.9084  138.0136  162.4302 C.2     1  UNL1        0.2257
     22 O         141.4745  137.6130  161.0513 O.2     1  UNL1       -0.2749
     23 C         139.9167  143.4731  165.5740 C.3     1  UNL1        0.0871
     24 C         139.7425  143.8442  164.1312 C.2     1  UNL1        0.2262
     25 O         138.6235  144.7549  163.7208 O.2     1  UNL1       -0.2748
     26 N         140.6874  143.3046  163.0986 N.am    1  UNL1       -0.2839
     27 H         141.4218  142.7069  163.3679 H       1  UNL1        0.1549
     28 C         140.5131  143.6758  161.6557 C.ar    1  UNL1        0.0511
     29 C         141.3210  144.7937  161.0660 C.ar    1  UNL1        0.0147
     30 C         141.1468  145.1648  159.6232 C.ar    1  UNL1        0.0021
     31 C         140.1647  144.4182  158.7699 C.ar    1  UNL1        0.0115
     32 C         139.3569  143.3003  159.3596 C.ar    1  UNL1        0.0589
     33 CL        138.3747  142.5536  158.5064 Cl      1  UNL1       -0.0822
     34 C         139.5311  142.9291  160.8025 C.ar    1  UNL1        0.0261
@<TRIPOS>BOND
     1    12    13    1
     2    13     6    1
     3     6     7   ar
     4     7     8   ar
     5     8     9   ar
     6     1     9    1
     7     1     2    1
     8     2     3    1
     9     3    14    1
    10    14    15    1
    11    15    16    1
    12    16    17    1
    13    17    18    1
    14    18    19    1
    15    19    20    1
    16    20    21    1
    17    21    22    2
    18     3     4    1
    19     4     5    1
    20     5    23    1
    21    23    24    1
    22    24    25    2
    23    24    26   am
    24    26    28    1
    25    28    29   ar
    26    29    30   ar
    27    30    31   ar
    28    31    32   ar
    29    32    33    1
    30    32    34   ar
    31     9    10   ar
    32    10    11   ar
    33    11     6   ar
    34     5     1    1
    35    34    28   ar
    36    21    17   am
    37    26    27    1
@<TRIPOS>MOLECULE
*****
 34 37 0 0 0
SMALL
GASTEIGER

@<TRIPOS>ATOM
      1 C         143.2235  138.8815  161.3473 C.3     1  UNL1        0.0401
      2 C         142.7233  137.8158  160.4178 C.3     1  UNL1        0.0765
      3 N         142.8381  138.3333  159.0146 N.3     1  UNL1       -0.2723
      4 C         143.4093  139.7189  159.0769 C.3     1  UNL1        0.0729
      5 C         143.6474  140.0577  160.5186 C.3     1  UNL1        0.0305
      6 C         143.4179  138.5996  165.8343 C.ar    1  UNL1        0.1387
      7 C         144.5795  139.1580  165.0668 C.ar    1  UNL1        0.0366
      8 C         144.5146  139.2519  163.5712 C.ar    1  UNL1       -0.0011
      9 C         143.2883  138.7875  162.8430 C.ar    1  UNL1       -0.0209
     10 C         142.1267  138.2292  163.6104 C.ar    1  UNL1       -0.0011
     11 C         142.1915  138.1352  165.1061 C.ar    1  UNL1        0.0366
     12 C         142.6707  139.4408  168.1761 C.3     1  UNL1        0.2525
     13 O         143.4827  138.5057  167.3299 O.3     1  UNL1       -0.4714
     14 C         142.4500  137.5949  157.7680 C.3     1  UNL1        0.0739
     15 C         141.2045  137.9792  157.0257 C.3     1  UNL1        0.0388
     16 C         139.8969  138.0758  157.7543 C.3     1  UNL1        0.0948
     17 N         139.6253  139.2432  158.6563 N.am    1  UNL1       -0.2795
     18 C         139.6766  140.6903  158.2650 C.3     1  UNL1        0.0939
     19 C         139.3378  141.5099  159.4748 C.3     1  UNL1        0.0311
     20 C         139.0773  140.5692  160.6138 C.3     1  UNL1        0.0870
     21 C         139.2550  139.1683  160.1079 C.2     1  UNL1        0.2257
     22 O         139.0911  137.9130  160.9124 O.2     1  UNL1       -0.2749
     23 C         144.2107  141.3464  161.0400 C.3     1  UNL1        0.0871
     24 C         143.3430  142.2776  161.8336 C.2     1  UNL1        0.2262
     25 O         143.9068  143.5655  162.3565 O.2     1  UNL1       -0.2748
     26 N         141.9114  141.9209  162.1045 N.am    1  UNL1       -0.2839
     27 H         141.5413  141.0756  161.7614 H       1  UNL1        0.1549
     28 C         141.0437  142.8521  162.8982 C.ar    1  UNL1        0.0511
     29 C         140.3156  143.9684  162.2099 C.ar    1  UNL1        0.0147
     30 C         139.4479  144.8996  163.0036 C.ar    1  UNL1        0.0021
     31 C         139.3083  144.7146  164.4856 C.ar    1  UNL1        0.0115
     32 C         140.0364  143.5983  165.1739 C.ar    1  UNL1        0.0589
     33 CL        139.8969  143.4132  166.6559 Cl      1  UNL1       -0.0822
     34 C         140.9041  142.6671  164.3802 C.ar    1  UNL1        0.0261
@<TRIPOS>BOND
     1    12    13    1
     2    13     6    1
     3     6     7   ar
     4     7     8   ar
     5     8     9   ar
     6     1     9    1
     7     1     2    1
     8     2     3    1
     9     3    14    1
    10    14    15    1
    11    15    16    1
    12    16    17    1
    13    17    18    1
    14    18    19    1
    15    19    20    1
    16    20    21    1
    17    21    22    2
    18     3     4    1
    19     4     5    1
    20     5    23    1
    21    23    24    1
    22    24    25    2
    23    24    26   am
    24    26    28    1
    25    28    29   ar
    26    29    30   ar
    27    30    31   ar
    28    31    32   ar
    29    32    33    1
    30    32    34   ar
    31     9    10   ar
    32    10    11   ar
    33    11     6   ar
    34     5     1    1
    35    34    28   ar
    36    21    17   am
    37    26    27    1
