@<TRIPOS>MOLECULE
*****
 27 29 0 0 0
SMALL
GASTEIGER

@<TRIPOS>ATOM
      1 N         140.2239  138.2547  162.4312 N.3     1  UNL1       -0.2700
      2 C         140.2217  137.4665  163.7075 C.3     1  UNL1        0.0897
      3 C         141.3340  137.6412  164.6986 C.3     1  UNL1        0.0897
      4 N         142.4483  138.6040  164.4135 N.3     1  UNL1       -0.2700
      5 C         142.4504  139.3921  163.1373 C.3     1  UNL1        0.0897
      6 C         141.3382  139.2175  162.1461 C.3     1  UNL1        0.0897
      7 C         139.1116  138.0800  161.4400 C.3     1  UNL1        0.0769
      8 C         137.8417  138.8636  161.5919 C.3     1  UNL1        0.0437
      9 C         137.9663  143.0574  163.2187 C.ar    1  UNL1        0.1387
     10 C         137.8489  141.8925  164.1562 C.ar    1  UNL1        0.0366
     11 C         137.8074  140.4945  163.6140 C.ar    1  UNL1       -0.0011
     12 C         137.8832  140.2615  162.1342 C.ar    1  UNL1       -0.0206
     13 C         138.0006  141.4264  161.1966 C.ar    1  UNL1       -0.0011
     14 C         138.0422  142.8244  161.7388 C.ar    1  UNL1        0.0366
     15 C         138.6194  144.7207  165.1046 C.3     1  UNL1        0.2525
     16 O         138.0079  144.4554  163.7609 O.3     1  UNL1       -0.4714
     17 C         143.5605  138.7787  165.4047 C.3     1  UNL1        0.0769
     18 C         143.3385  138.4387  166.8488 C.3     1  UNL1        0.0437
     19 C         142.7834  139.4705  167.7854 C.ar    1  UNL1       -0.0204
     20 C         142.4557  140.8440  167.2793 C.ar    1  UNL1        0.0021
     21 C         141.9006  141.8758  168.2159 C.ar    1  UNL1        0.0749
     22 C         141.6731  141.5341  169.6586 C.ar    1  UNL1        0.2900
     23 C         142.0008  140.1606  170.1648 C.ar    1  UNL1        0.0749
     24 C         142.5559  139.1288  169.2282 C.ar    1  UNL1        0.0021
     25 N         141.1180  142.5659  170.5952 N.pl3   1  UNL1        0.0809
     26 O         141.1422  144.0162  170.2130 O.2     1  UNL1        0.0415
     27 O         140.5386  142.1474  171.9140 O.co2   1  UNL1       -0.5760
@<TRIPOS>UNITY_ATOM_ATTR
25 1
charge 1
27 1
charge -1
@<TRIPOS>BOND
     1    15    16    1
     2    16     9    1
     3     9    10   ar
     4    10    11   ar
     5    11    12   ar
     6    12     8    1
     7     8     7    1
     8     7     1    1
     9     1     2    1
    10     2     3    1
    11     3     4    1
    12     4    17    1
    13    17    18    1
    14    18    19    1
    15    19    20   ar
    16    20    21   ar
    17    21    22   ar
    18    22    25    1
    19    25    26    2
    20    25    27    1
    21    22    23   ar
    22    23    24   ar
    23     4     5    1
    24     5     6    1
    25    12    13   ar
    26    13    14   ar
    27    14     9   ar
    28     6     1    1
    29    24    19   ar
@<TRIPOS>MOLECULE
*****
 27 29 0 0 0
SMALL
GASTEIGER

@<TRIPOS>ATOM
      1 N         142.7020  138.0819  162.6717 N.3     1  UNL1       -0.2700
      2 C         142.9122  138.3864  164.1254 C.3     1  UNL1        0.0897
      3 C         141.7439  138.3957  165.0662 C.3     1  UNL1        0.0897
      4 N         140.3656  138.1004  164.5534 N.3     1  UNL1       -0.2700
      5 C         140.1554  137.7959  163.0997 C.3     1  UNL1        0.0897
      6 C         141.3237  137.7866  162.1589 C.3     1  UNL1        0.0897
      7 C         143.8702  138.0726  161.7308 C.3     1  UNL1        0.0769
      8 C         144.0377  139.1792  160.7322 C.3     1  UNL1        0.0437
      9 C         144.1405  143.4605  162.1141 C.ar    1  UNL1        0.1387
     10 C         143.3462  143.0836  160.8989 C.ar    1  UNL1        0.0366
     11 C         143.3119  141.6564  160.4382 C.ar    1  UNL1       -0.0011
     12 C         144.0720  140.6063  161.1928 C.ar    1  UNL1       -0.0206
     13 C         144.8664  140.9833  162.4080 C.ar    1  UNL1       -0.0011
     14 C         144.9007  142.4104  162.8687 C.ar    1  UNL1        0.0366
     15 C         143.6152  145.2563  163.9167 C.3     1  UNL1        0.2525
     16 O         144.1748  144.8877  162.5747 O.3     1  UNL1       -0.4714
     17 C         139.1973  138.1097  165.4942 C.3     1  UNL1        0.0769
     18 C         138.5739  139.4113  165.9030 C.3     1  UNL1        0.0437
     19 C         139.1374  140.1823  167.0597 C.ar    1  UNL1       -0.0204
     20 C         139.9994  141.3844  166.8111 C.ar    1  UNL1        0.0021
     21 C         140.5630  142.1554  167.9679 C.ar    1  UNL1        0.0749
     22 C         140.2646  141.7242  169.3732 C.ar    1  UNL1        0.2900
     23 C         139.4025  140.5220  169.6218 C.ar    1  UNL1        0.0749
     24 C         138.8390  139.7511  168.4651 C.ar    1  UNL1        0.0021
     25 N         140.8281  142.4951  170.5299 N.pl3   1  UNL1        0.0809
     26 O         140.5361  142.0593  171.9353 O.2     1  UNL1        0.0415
     27 O         141.6836  143.7019  170.2814 O.co2   1  UNL1       -0.5760
@<TRIPOS>UNITY_ATOM_ATTR
25 1
charge 1
27 1
charge -1
@<TRIPOS>BOND
     1    15    16    1
     2    16     9    1
     3     9    10   ar
     4    10    11   ar
     5    11    12   ar
     6    12     8    1
     7     8     7    1
     8     7     1    1
     9     1     2    1
    10     2     3    1
    11     3     4    1
    12     4    17    1
    13    17    18    1
    14    18    19    1
    15    19    20   ar
    16    20    21   ar
    17    21    22   ar
    18    22    25    1
    19    25    26    2
    20    25    27    1
    21    22    23   ar
    22    23    24   ar
    23     4     5    1
    24     5     6    1
    25    12    13   ar
    26    13    14   ar
    27    14     9   ar
    28     6     1    1
    29    24    19   ar
@<TRIPOS>MOLECULE
*****
 27 29 0 0 0
SMALL
GASTEIGER

@<TRIPOS>ATOM
      1 N         141.9899  138.0373  164.2213 N.3     1  UNL1       -0.2700
      2 C         142.4828  138.3787  162.8462 C.3     1  UNL1        0.0897
      3 C         143.5797  139.3867  162.6715 C.3     1  UNL1        0.0897
      4 N         144.1838  140.0534  163.8719 N.3     1  UNL1       -0.2700
      5 C         143.6909  139.7120  165.2468 C.3     1  UNL1        0.0897
      6 C         142.5940  138.7040  165.4215 C.3     1  UNL1        0.0897
      7 C         140.8929  137.0293  164.3960 C.3     1  UNL1        0.0769
      8 C         139.5208  137.4772  164.8040 C.3     1  UNL1        0.0437
      9 C         137.8420  141.3315  163.1992 C.ar    1  UNL1        0.1387
     10 C         138.3742  141.2711  164.6002 C.ar    1  UNL1        0.0366
     11 C         138.9338  139.9863  165.1352 C.ar    1  UNL1       -0.0011
     12 C         138.9612  138.7620  164.2691 C.ar    1  UNL1       -0.0206
     13 C         138.4289  138.8224  162.8680 C.ar    1  UNL1       -0.0011
     14 C         137.8693  140.1072  162.3331 C.ar    1  UNL1        0.0366
     15 C         137.6815  143.9233  163.2827 C.3     1  UNL1        0.2525
     16 O         137.2824  142.6163  162.6643 O.3     1  UNL1       -0.4714
     17 C         145.2808  141.0614  163.6972 C.3     1  UNL1        0.0769
     18 C         145.0216  142.5100  163.9882 C.3     1  UNL1        0.0437
     19 C         143.8567  143.2065  163.3495 C.ar    1  UNL1       -0.0204
     20 C         143.6879  143.1730  161.8594 C.ar    1  UNL1        0.0021
     21 C         142.5230  143.8695  161.2208 C.ar    1  UNL1        0.0749
     22 C         141.5269  144.5995  162.0722 C.ar    1  UNL1        0.2900
     23 C         141.6957  144.6330  163.5623 C.ar    1  UNL1        0.0749
     24 C         142.8606  143.9365  164.2010 C.ar    1  UNL1        0.0021
     25 N         140.3620  145.2960  161.4335 N.pl3   1  UNL1        0.0809
     26 O         139.9583  146.6634  161.8997 O.2     1  UNL1        0.0415
     27 O         139.6009  144.6252  160.3287 O.co2   1  UNL1       -0.5760
@<TRIPOS>UNITY_ATOM_ATTR
25 1
charge 1
27 1
charge -1
@<TRIPOS>BOND
     1    15    16    1
     2    16     9    1
     3     9    10   ar
     4    10    11   ar
     5    11    12   ar
     6    12     8    1
     7     8     7    1
     8     7     1    1
     9     1     2    1
    10     2     3    1
    11     3     4    1
    12     4    17    1
    13    17    18    1
    14    18    19    1
    15    19    20   ar
    16    20    21   ar
    17    21    22   ar
    18    22    25    1
    19    25    26    2
    20    25    27    1
    21    22    23   ar
    22    23    24   ar
    23     4     5    1
    24     5     6    1
    25    12    13   ar
    26    13    14   ar
    27    14     9   ar
    28     6     1    1
    29    24    19   ar
@<TRIPOS>MOLECULE
*****
 27 29 0 0 0
SMALL
GASTEIGER

@<TRIPOS>ATOM
      1 N         144.1874  139.7699  163.9677 N.3     1  UNL1       -0.2700
      2 C         143.7796  139.3382  165.3452 C.3     1  UNL1        0.0897
      3 C         142.6185  138.4059  165.5260 C.3     1  UNL1        0.0897
      4 N         141.8651  137.9054  164.3293 N.3     1  UNL1       -0.2700
      5 C         142.2729  138.3371  162.9519 C.3     1  UNL1        0.0897
      6 C         143.4340  139.2693  162.7711 C.3     1  UNL1        0.0897
      7 C         145.3485  140.7021  163.7869 C.3     1  UNL1        0.0769
      8 C         145.2678  142.1091  164.3005 C.3     1  UNL1        0.0437
      9 C         141.6195  144.6055  163.4593 C.ar    1  UNL1        0.1387
     10 C         141.6208  143.6434  164.6100 C.ar    1  UNL1        0.0366
     11 C         142.8369  142.8112  164.8904 C.ar    1  UNL1       -0.0011
     12 C         144.0517  142.9412  164.0201 C.ar    1  UNL1       -0.0206
     13 C         144.0503  143.9034  162.8694 C.ar    1  UNL1       -0.0011
     14 C         142.8342  144.7356  162.5890 C.ar    1  UNL1        0.0366
     15 C         140.1418  145.9392  161.7897 C.3     1  UNL1        0.2525
     16 O         140.4034  145.4377  163.1789 O.3     1  UNL1       -0.4714
     17 C         140.7040  136.9731  164.5101 C.3     1  UNL1        0.0769
     18 C         139.3607  137.5151  164.9002 C.3     1  UNL1        0.0437
     19 C         138.9805  138.9172  164.5267 C.ar    1  UNL1       -0.0204
     20 C         138.4509  139.2104  163.1543 C.ar    1  UNL1        0.0021
     21 C         138.0707  140.6125  162.7809 C.ar    1  UNL1        0.0749
     22 C         138.2200  141.7214  163.7799 C.ar    1  UNL1        0.2900
     23 C         138.7496  141.4283  165.1523 C.ar    1  UNL1        0.0749
     24 C         139.1299  140.0261  165.5258 C.ar    1  UNL1        0.0021
     25 N         137.8397  143.1236  163.4064 N.pl3   1  UNL1        0.0809
     26 O         137.6841  143.4991  161.9625 O.2     1  UNL1        0.0415
     27 O         137.6151  144.1501  164.4768 O.co2   1  UNL1       -0.5760
@<TRIPOS>UNITY_ATOM_ATTR
25 1
charge 1
27 1
charge -1
@<TRIPOS>BOND
     1    15    16    1
     2    16     9    1
     3     9    10   ar
     4    10    11   ar
     5    11    12   ar
     6    12     8    1
     7     8     7    1
     8     7     1    1
     9     1     2    1
    10     2     3    1
    11     3     4    1
    12     4    17    1
    13    17    18    1
    14    18    19    1
    15    19    20   ar
    16    20    21   ar
    17    21    22   ar
    18    22    25    1
    19    25    26    2
    20    25    27    1
    21    22    23   ar
    22    23    24   ar
    23     4     5    1
    24     5     6    1
    25    12    13   ar
    26    13    14   ar
    27    14     9   ar
    28     6     1    1
    29    24    19   ar
@<TRIPOS>MOLECULE
*****
 27 29 0 0 0
SMALL
GASTEIGER

@<TRIPOS>ATOM
      1 N         138.0220  142.9407  163.3738 N.3     1  UNL1       -0.2700
      2 C         138.0951  142.7306  161.8904 C.3     1  UNL1        0.0897
      3 C         138.0315  141.3425  161.3255 C.3     1  UNL1        0.0897
      4 N         137.8950  140.1645  162.2441 N.3     1  UNL1       -0.2700
      5 C         137.8220  140.3746  163.7274 C.3     1  UNL1        0.0897
      6 C         137.8855  141.7628  164.2923 C.3     1  UNL1        0.0897
      7 C         138.0855  144.3289  163.9387 C.3     1  UNL1        0.0769
      8 C         139.2462  144.7371  164.7967 C.3     1  UNL1        0.0437
      9 C         143.4383  143.6438  163.5794 C.ar    1  UNL1        0.1387
     10 C         142.6738  142.7563  164.5163 C.ar    1  UNL1        0.0366
     11 C         141.2764  143.1208  164.9221 C.ar    1  UNL1       -0.0011
     12 C         140.6436  144.3727  164.3909 C.ar    1  UNL1       -0.0206
     13 C         141.4081  145.2601  163.4540 C.ar    1  UNL1       -0.0011
     14 C         142.8054  144.8957  163.0482 C.ar    1  UNL1        0.0366
     15 C         145.0934  141.9959  162.4415 C.3     1  UNL1        0.2525
     16 O         144.8356  143.2794  163.1736 O.3     1  UNL1       -0.4714
     17 C         137.8315  138.7764  161.6792 C.3     1  UNL1        0.0769
     18 C         139.0951  138.0005  161.4522 C.3     1  UNL1        0.0437
     19 C         140.2594  138.1748  162.3817 C.ar    1  UNL1       -0.0204
     20 C         141.3488  139.1492  162.0447 C.ar    1  UNL1        0.0021
     21 C         142.5132  139.3235  162.9742 C.ar    1  UNL1        0.0749
     22 C         142.5880  138.5234  164.2408 C.ar    1  UNL1        0.2900
     23 C         141.4986  137.5490  164.5779 C.ar    1  UNL1        0.0749
     24 C         140.3342  137.3747  163.6484 C.ar    1  UNL1        0.0021
     25 N         143.7523  138.6977  165.1703 N.pl3   1  UNL1        0.0809
     26 O         143.6282  138.2986  166.6109 O.2     1  UNL1        0.0415
     27 O         145.0407  139.2711  164.6592 O.co2   1  UNL1       -0.5760
@<TRIPOS>UNITY_ATOM_ATTR
25 1
charge 1
27 1
charge -1
@<TRIPOS>BOND
     1    15    16    1
     2    16     9    1
     3     9    10   ar
     4    10    11   ar
     5    11    12   ar
     6    12     8    1
     7     8     7    1
     8     7     1    1
     9     1     2    1
    10     2     3    1
    11     3     4    1
    12     4    17    1
    13    17    18    1
    14    18    19    1
    15    19    20   ar
    16    20    21   ar
    17    21    22   ar
    18    22    25    1
    19    25    26    2
    20    25    27    1
    21    22    23   ar
    22    23    24   ar
    23     4     5    1
    24     5     6    1
    25    12    13   ar
    26    13    14   ar
    27    14     9   ar
    28     6     1    1
    29    24    19   ar
@<TRIPOS>MOLECULE
*****
 27 29 0 0 0
SMALL
GASTEIGER

@<TRIPOS>ATOM
      1 N         144.5789  140.8491  162.9420 N.3     1  UNL1       -0.2700
      2 C         143.9158  141.2929  161.6717 C.3     1  UNL1        0.0897
      3 C         142.9027  140.4092  161.0063 C.3     1  UNL1        0.0897
      4 N         142.5527  139.0819  161.6111 N.3     1  UNL1       -0.2700
      5 C         143.2158  138.6382  162.8813 C.3     1  UNL1        0.0897
      6 C         144.2289  139.5219  163.5468 C.3     1  UNL1        0.0897
      7 C         145.5920  141.7328  163.6075 C.3     1  UNL1        0.0769
      8 C         145.1478  142.7749  164.5906 C.3     1  UNL1        0.0437
      9 C         141.0149  144.5304  164.2950 C.ar    1  UNL1        0.1387
     10 C         141.2388  143.2656  165.0695 C.ar    1  UNL1        0.0366
     11 C         142.6165  142.6804  165.1680 C.ar    1  UNL1       -0.0011
     12 C         143.7701  143.3601  164.4921 C.ar    1  UNL1       -0.0206
     13 C         143.5462  144.6250  163.7176 C.ar    1  UNL1       -0.0011
     14 C         142.1686  145.2101  163.6191 C.ar    1  UNL1        0.0366
     15 C         138.6090  144.7931  165.2399 C.3     1  UNL1        0.2525
     16 O         139.6373  145.1156  164.1965 O.3     1  UNL1       -0.4714
     17 C         141.5396  138.1983  160.9456 C.3     1  UNL1        0.0769
     18 C         140.0867  138.3268  161.2963 C.3     1  UNL1        0.0437
     19 C         139.6740  138.5127  162.7263 C.ar    1  UNL1       -0.0204
     20 C         139.4614  137.3173  163.6071 C.ar    1  UNL1        0.0021
     21 C         139.0486  137.5033  165.0371 C.ar    1  UNL1        0.0749
     22 C         138.8484  138.8846  165.5864 C.ar    1  UNL1        0.2900
     23 C         139.0610  140.0801  164.7056 C.ar    1  UNL1        0.0749
     24 C         139.4737  139.8942  163.2756 C.ar    1  UNL1        0.0021
     25 N         138.4356  139.0706  167.0165 N.pl3   1  UNL1        0.0809
     26 O         139.1914  140.0204  167.8978 O.2     1  UNL1        0.0415
     27 O         137.2671  138.3067  167.5652 O.co2   1  UNL1       -0.5760
@<TRIPOS>UNITY_ATOM_ATTR
25 1
charge 1
27 1
charge -1
@<TRIPOS>BOND
     1    15    16    1
     2    16     9    1
     3     9    10   ar
     4    10    11   ar
     5    11    12   ar
     6    12     8    1
     7     8     7    1
     8     7     1    1
     9     1     2    1
    10     2     3    1
    11     3     4    1
    12     4    17    1
    13    17    18    1
    14    18    19    1
    15    19    20   ar
    16    20    21   ar
    17    21    22   ar
    18    22    25    1
    19    25    26    2
    20    25    27    1
    21    22    23   ar
    22    23    24   ar
    23     4     5    1
    24     5     6    1
    25    12    13   ar
    26    13    14   ar
    27    14     9   ar
    28     6     1    1
    29    24    19   ar
@<TRIPOS>MOLECULE
*****
 27 29 0 0 0
SMALL
GASTEIGER

@<TRIPOS>ATOM
      1 N         143.9077  139.9741  163.9935 N.3     1  UNL1       -0.2700
      2 C         142.7514  139.8742  163.0431 C.3     1  UNL1        0.0897
      3 C         141.4258  139.3644  163.5257 C.3     1  UNL1        0.0897
      4 N         141.2565  138.9545  164.9587 N.3     1  UNL1       -0.2700
      5 C         142.4127  139.0544  165.9090 C.3     1  UNL1        0.0897
      6 C         143.7383  139.5642  165.4264 C.3     1  UNL1        0.0897
      7 C         145.2332  140.4839  163.5109 C.3     1  UNL1        0.0769
      8 C         145.4917  141.9601  163.4492 C.3     1  UNL1        0.0437
      9 C         142.0761  144.8173  162.8013 C.ar    1  UNL1        0.1387
     10 C         142.7177  144.1372  161.6285 C.ar    1  UNL1        0.0366
     11 C         143.8563  143.1848  161.8444 C.ar    1  UNL1       -0.0011
     12 C         144.3532  142.9125  163.2333 C.ar    1  UNL1       -0.0206
     13 C         143.7116  143.5927  164.4061 C.ar    1  UNL1       -0.0011
     14 C         142.5730  144.5451  164.1901 C.ar    1  UNL1        0.0366
     15 C         139.5260  145.3141  162.8084 C.3     1  UNL1        0.2525
     16 O         140.9376  145.7697  162.5853 O.3     1  UNL1       -0.4714
     17 C         139.9309  138.4447  165.4413 C.3     1  UNL1        0.0769
     18 C         138.9591  139.3827  166.0940 C.3     1  UNL1        0.0437
     19 C         139.4526  140.4288  167.0490 C.ar    1  UNL1       -0.0204
     20 C         139.9665  141.7379  166.5274 C.ar    1  UNL1        0.0021
     21 C         140.4600  142.7841  167.4824 C.ar    1  UNL1        0.0749
     22 C         140.4396  142.5211  168.9590 C.ar    1  UNL1        0.2900
     23 C         139.9257  141.2120  169.4807 C.ar    1  UNL1        0.0749
     24 C         139.4322  140.1658  168.5257 C.ar    1  UNL1        0.0021
     25 N         140.9331  143.5673  169.9140 N.pl3   1  UNL1        0.0809
     26 O         142.2655  143.4031  170.5834 O.2     1  UNL1        0.0415
     27 O         140.0944  144.7776  170.1996 O.co2   1  UNL1       -0.5760
@<TRIPOS>UNITY_ATOM_ATTR
25 1
charge 1
27 1
charge -1
@<TRIPOS>BOND
     1    15    16    1
     2    16     9    1
     3     9    10   ar
     4    10    11   ar
     5    11    12   ar
     6    12     8    1
     7     8     7    1
     8     7     1    1
     9     1     2    1
    10     2     3    1
    11     3     4    1
    12     4    17    1
    13    17    18    1
    14    18    19    1
    15    19    20   ar
    16    20    21   ar
    17    21    22   ar
    18    22    25    1
    19    25    26    2
    20    25    27    1
    21    22    23   ar
    22    23    24   ar
    23     4     5    1
    24     5     6    1
    25    12    13   ar
    26    13    14   ar
    27    14     9   ar
    28     6     1    1
    29    24    19   ar
@<TRIPOS>MOLECULE
*****
 27 29 0 0 0
SMALL
GASTEIGER

@<TRIPOS>ATOM
      1 N         142.8280  139.1674  161.3564 N.3     1  UNL1       -0.2700
      2 C         143.2010  140.5051  160.7893 C.3     1  UNL1        0.0897
      3 C         144.1416  141.4015  161.5388 C.3     1  UNL1        0.0897
      4 N         144.7093  140.9602  162.8553 N.3     1  UNL1       -0.2700
      5 C         144.3363  139.6225  163.4222 C.3     1  UNL1        0.0897
      6 C         143.3957  138.7261  162.6728 C.3     1  UNL1        0.0897
      7 C         141.8874  138.2710  160.6069 C.3     1  UNL1        0.0769
      8 C         140.4053  138.4575  160.7429 C.3     1  UNL1        0.0437
      9 C         138.5970  139.2315  164.7903 C.ar    1  UNL1        0.1387
     10 C         138.8256  140.3700  163.8408 C.ar    1  UNL1        0.0366
     11 C         139.4284  140.1120  162.4917 C.ar    1  UNL1       -0.0011
     12 C         139.8025  138.7155  162.0921 C.ar    1  UNL1       -0.0206
     13 C         139.5739  137.5770  163.0415 C.ar    1  UNL1       -0.0011
     14 C         138.9711  137.8350  164.3906 C.ar    1  UNL1        0.0366
     15 C         137.5834  138.3390  167.0097 C.3     1  UNL1        0.2525
     16 O         137.9942  139.4895  166.1394 O.3     1  UNL1       -0.4714
     17 C         145.6499  141.8566  163.6047 C.3     1  UNL1        0.0769
     18 C         145.1199  142.7970  164.6463 C.3     1  UNL1        0.0437
     19 C         143.7188  143.3220  164.5394 C.ar    1  UNL1       -0.0204
     20 C         143.4512  144.6006  163.8023 C.ar    1  UNL1        0.0021
     21 C         142.0502  145.1257  163.6954 C.ar    1  UNL1        0.0749
     22 C         140.9167  144.3720  164.3256 C.ar    1  UNL1        0.2900
     23 C         141.1843  143.0933  165.0628 C.ar    1  UNL1        0.0749
     24 C         142.5853  142.5683  165.1697 C.ar    1  UNL1        0.0021
     25 N         139.5157  144.8971  164.2188 N.pl3   1  UNL1        0.0809
     26 O         138.6724  145.0404  165.4510 O.2     1  UNL1        0.0415
     27 O         138.9579  145.2787  162.8797 O.co2   1  UNL1       -0.5760
@<TRIPOS>UNITY_ATOM_ATTR
25 1
charge 1
27 1
charge -1
@<TRIPOS>BOND
     1    15    16    1
     2    16     9    1
     3     9    10   ar
     4    10    11   ar
     5    11    12   ar
     6    12     8    1
     7     8     7    1
     8     7     1    1
     9     1     2    1
    10     2     3    1
    11     3     4    1
    12     4    17    1
    13    17    18    1
    14    18    19    1
    15    19    20   ar
    16    20    21   ar
    17    21    22   ar
    18    22    25    1
    19    25    26    2
    20    25    27    1
    21    22    23   ar
    22    23    24   ar
    23     4     5    1
    24     5     6    1
    25    12    13   ar
    26    13    14   ar
    27    14     9   ar
    28     6     1    1
    29    24    19   ar
@<TRIPOS>MOLECULE
*****
 27 29 0 0 0
SMALL
GASTEIGER

@<TRIPOS>ATOM
      1 N         139.8555  138.1231  164.4568 N.3     1  UNL1       -0.2700
      2 C         139.7180  138.0530  162.9647 C.3     1  UNL1        0.0897
      3 C         140.9425  138.0414  162.0984 C.3     1  UNL1        0.0897
      4 N         142.3045  138.0999  162.7242 N.3     1  UNL1       -0.2700
      5 C         142.4420  138.1699  164.2163 C.3     1  UNL1        0.0897
      6 C         141.2175  138.1815  165.0825 C.3     1  UNL1        0.0897
      7 C         138.6310  138.1347  165.3231 C.3     1  UNL1        0.0769
      8 C         138.1592  139.4190  165.9376 C.3     1  UNL1        0.0437
      9 C         139.9030  143.3381  164.5775 C.ar    1  UNL1        0.1387
     10 C         140.4765  142.6366  165.7729 C.ar    1  UNL1        0.0366
     11 C         139.8952  141.3302  166.2262 C.ar    1  UNL1       -0.0011
     12 C         138.7405  140.7254  165.4842 C.ar    1  UNL1       -0.0206
     13 C         138.1670  141.4269  164.2889 C.ar    1  UNL1       -0.0011
     14 C         138.7483  142.7333  163.8355 C.ar    1  UNL1        0.0366
     15 C         140.2143  145.1440  162.7358 C.3     1  UNL1        0.2525
     16 O         140.4843  144.6445  164.1241 O.3     1  UNL1       -0.4714
     17 C         143.5290  138.0883  161.8579 C.3     1  UNL1        0.0769
     18 C         144.0660  139.3735  161.3011 C.3     1  UNL1        0.0437
     19 C         144.1488  140.5917  162.1723 C.ar    1  UNL1       -0.0204
     20 C         145.1870  140.6726  163.2518 C.ar    1  UNL1        0.0021
     21 C         145.2698  141.8908  164.1231 C.ar    1  UNL1        0.0749
     22 C         144.3144  143.0282  163.9147 C.ar    1  UNL1        0.2900
     23 C         143.2761  142.9474  162.8351 C.ar    1  UNL1        0.0749
     24 C         143.1933  141.7292  161.9639 C.ar    1  UNL1        0.0021
     25 N         144.3972  144.2465  164.7859 N.pl3   1  UNL1        0.0809
     26 O         143.6790  145.5023  164.3894 O.2     1  UNL1        0.0415
     27 O         145.1982  144.2089  166.0536 O.co2   1  UNL1       -0.5760
@<TRIPOS>UNITY_ATOM_ATTR
25 1
charge 1
27 1
charge -1
@<TRIPOS>BOND
     1    15    16    1
     2    16     9    1
     3     9    10   ar
     4    10    11   ar
     5    11    12   ar
     6    12     8    1
     7     8     7    1
     8     7     1    1
     9     1     2    1
    10     2     3    1
    11     3     4    1
    12     4    17    1
    13    17    18    1
    14    18    19    1
    15    19    20   ar
    16    20    21   ar
    17    21    22   ar
    18    22    25    1
    19    25    26    2
    20    25    27    1
    21    22    23   ar
    22    23    24   ar
    23     4     5    1
    24     5     6    1
    25    12    13   ar
    26    13    14   ar
    27    14     9   ar
    28     6     1    1
    29    24    19   ar
