@<TRIPOS>MOLECULE
*****
 28 31 0 0 0
SMALL
GASTEIGER

@<TRIPOS>ATOM
      1 C         137.3093  138.0755  167.2806 C.3     1  UNL1        0.0420
      2 C         138.2526  139.1401  166.8042 C.3     1  UNL1        0.1912
      3 O         138.3293  139.4754  165.3442 O.3     1  UNL1       -0.3500
      4 C         139.2727  140.5400  164.8677 C.3     1  UNL1        0.1145
      5 C         140.2159  141.6045  164.3913 C.3     1  UNL1        0.0463
      6 C         140.2926  141.9399  162.9314 C.3     1  UNL1        0.0746
      7 N         139.4261  141.2108  161.9478 N.3     1  UNL1       -0.2722
      8 C         138.4828  140.1463  162.4242 C.3     1  UNL1        0.0746
      9 C         138.4061  139.8109  163.8841 C.3     1  UNL1        0.0463
     10 C         140.1392  141.2691  165.8513 C.3     1  UNL1        0.1254
     11 N         140.0625  140.9337  167.3114 N.am    1  UNL1       -0.2543
     12 C         139.1192  139.8692  167.7878 C.2     1  UNL1        0.2566
     13 O         139.0424  139.5337  169.2478 O.2     1  UNL1       -0.2719
     14 C         140.9290  141.6628  168.2950 C.ar    1  UNL1        0.0540
     15 C         140.3789  142.8320  169.0566 C.ar    1  UNL1        0.0149
     16 C         141.2455  143.5612  170.0402 C.ar    1  UNL1        0.0013
     17 C         142.6622  143.1210  170.2621 C.ar    1  UNL1        0.0001
     18 C         143.2123  141.9517  169.5004 C.ar    1  UNL1        0.0013
     19 C         142.3458  141.2226  168.5168 C.ar    1  UNL1        0.0149
     20 C         139.5028  141.5462  160.4877 C.3     1  UNL1        0.0768
     21 C         140.5878  140.9538  159.6381 C.3     1  UNL1        0.0437
     22 C         141.6484  140.0982  160.2650 C.ar    1  UNL1       -0.0186
     23 C         141.5022  138.6053  160.2695 C.ar    1  UNL1       -0.0041
     24 C         142.5629  137.7498  160.8964 C.ar    1  UNL1        0.0020
     25 C         143.7697  138.3871  161.5188 C.ar    1  UNL1        0.0296
     26 C         143.9160  139.8799  161.5143 C.ar    1  UNL1        0.1398
     27 F         145.1228  140.5171  162.1367 F       1  UNL1       -0.2042
     28 C         142.8553  140.7354  160.8874 C.ar    1  UNL1        0.0254
@<TRIPOS>BOND
     1     1     2    1
     2     2     3    1
     3     3     4    1
     4     4     5    1
     5     5     6    1
     6     6     7    1
     7     7    20    1
     8    20    21    1
     9    21    22    1
    10    22    23   ar
    11    23    24   ar
    12    24    25   ar
    13    25    26   ar
    14    26    27    1
    15    26    28   ar
    16     7     8    1
    17     8     9    1
    18     4    10    1
    19    10    11    1
    20    11    14    1
    21    14    15   ar
    22    15    16   ar
    23    16    17   ar
    24    17    18   ar
    25    18    19   ar
    26    11    12   am
    27    12    13    2
    28    12     2    1
    29     9     4    1
    30    19    14   ar
    31    28    22   ar
@<TRIPOS>MOLECULE
*****
 28 31 0 0 0
SMALL
GASTEIGER

@<TRIPOS>ATOM
      1 C         143.8909  138.0356  166.3156 C.3     1  UNL1        0.0420
      2 C         142.5783  138.7595  166.2597 C.3     1  UNL1        0.1912
      3 O         141.6701  138.5758  165.0802 O.3     1  UNL1       -0.3500
      4 C         140.3574  139.2997  165.0243 C.3     1  UNL1        0.1145
      5 C         139.0449  140.0235  164.9685 C.3     1  UNL1        0.0463
      6 C         138.1367  139.8398  163.7890 C.3     1  UNL1        0.0746
      7 N         138.5410  138.9322  162.6652 N.3     1  UNL1       -0.2722
      8 C         139.8536  138.2083  162.7210 C.3     1  UNL1        0.0746
      9 C         140.7618  138.3921  163.9006 C.3     1  UNL1        0.0463
     10 C         139.9531  140.2072  166.1480 C.3     1  UNL1        0.1254
     11 N         140.8613  140.3909  167.3276 N.am    1  UNL1       -0.2543
     12 C         142.1739  139.6671  167.3834 C.2     1  UNL1        0.2566
     13 O         143.0822  139.8508  168.5630 O.2     1  UNL1       -0.2719
     14 C         140.4570  141.2985  168.4514 C.ar    1  UNL1        0.0540
     15 C         140.9243  142.7238  168.4695 C.ar    1  UNL1        0.0149
     16 C         140.5199  143.6313  169.5933 C.ar    1  UNL1        0.0013
     17 C         139.6483  143.1137  170.6988 C.ar    1  UNL1        0.0001
     18 C         139.1810  141.6884  170.6807 C.ar    1  UNL1        0.0013
     19 C         139.5853  140.7808  169.5570 C.ar    1  UNL1        0.0149
     20 C         137.6327  138.7485  161.4856 C.3     1  UNL1        0.0768
     21 C         137.5681  139.8000  160.4179 C.3     1  UNL1        0.0437
     22 C         138.6346  140.8517  160.3354 C.ar    1  UNL1       -0.0186
     23 C         139.9134  140.5673  159.6049 C.ar    1  UNL1       -0.0041
     24 C         140.9798  141.6190  159.5224 C.ar    1  UNL1        0.0020
     25 C         140.7673  142.9550  160.1704 C.ar    1  UNL1        0.0296
     26 C         139.4885  143.2394  160.9009 C.ar    1  UNL1        0.1398
     27 F         139.2760  144.5754  161.5489 F       1  UNL1       -0.2042
     28 C         138.4221  142.1877  160.9834 C.ar    1  UNL1        0.0254
@<TRIPOS>BOND
     1     1     2    1
     2     2     3    1
     3     3     4    1
     4     4     5    1
     5     5     6    1
     6     6     7    1
     7     7    20    1
     8    20    21    1
     9    21    22    1
    10    22    23   ar
    11    23    24   ar
    12    24    25   ar
    13    25    26   ar
    14    26    27    1
    15    26    28   ar
    16     7     8    1
    17     8     9    1
    18     4    10    1
    19    10    11    1
    20    11    14    1
    21    14    15   ar
    22    15    16   ar
    23    16    17   ar
    24    17    18   ar
    25    18    19   ar
    26    11    12   am
    27    12    13    2
    28    12     2    1
    29     9     4    1
    30    19    14   ar
    31    28    22   ar
@<TRIPOS>MOLECULE
*****
 28 31 0 0 0
SMALL
GASTEIGER

@<TRIPOS>ATOM
      1 C         137.2875  138.0595  167.2326 C.3     1  UNL1        0.0420
      2 C         138.3667  138.9841  166.7523 C.3     1  UNL1        0.1912
      3 O         138.6352  139.1243  165.2833 O.3     1  UNL1       -0.3500
      4 C         139.7144  140.0488  164.8029 C.3     1  UNL1        0.1145
      5 C         140.7936  140.9733  164.3227 C.3     1  UNL1        0.0463
      6 C         141.0621  141.1135  162.8536 C.3     1  UNL1        0.0746
      7 N         140.2514  140.3292  161.8648 N.3     1  UNL1       -0.2722
      8 C         139.1723  139.4047  162.3451 C.3     1  UNL1        0.0746
      9 C         138.9038  139.2645  163.8141 C.3     1  UNL1        0.0463
     10 C         140.5251  140.8331  165.7918 C.3     1  UNL1        0.1254
     11 N         140.2565  140.6929  167.2609 N.am    1  UNL1       -0.2543
     12 C         139.1773  139.7684  167.7411 C.2     1  UNL1        0.2566
     13 O         138.9088  139.6281  169.2103 O.2     1  UNL1       -0.2719
     14 C         141.0671  141.4771  168.2497 C.ar    1  UNL1        0.0540
     15 C         140.4742  142.6821  168.9178 C.ar    1  UNL1        0.0149
     16 C         141.2848  143.4664  169.9066 C.ar    1  UNL1        0.0013
     17 C         142.6884  143.0457  170.2273 C.ar    1  UNL1        0.0001
     18 C         143.2814  141.8407  169.5592 C.ar    1  UNL1        0.0013
     19 C         142.4708  141.0564  168.5704 C.ar    1  UNL1        0.0149
     20 C         140.5200  140.4695  160.3957 C.3     1  UNL1        0.0768
     21 C         139.5679  141.2395  159.5294 C.3     1  UNL1        0.0437
     22 C         139.8376  142.6815  159.2161 C.ar    1  UNL1       -0.0186
     23 C         139.9795  143.1254  157.7903 C.ar    1  UNL1       -0.0041
     24 C         140.2491  144.5673  157.4771 C.ar    1  UNL1        0.0020
     25 C         140.3768  145.5653  158.5896 C.ar    1  UNL1        0.0296
     26 C         140.2349  145.1214  160.0153 C.ar    1  UNL1        0.1398
     27 F         140.3626  146.1194  161.1279 F       1  UNL1       -0.2042
     28 C         139.9653  143.6795  160.3286 C.ar    1  UNL1        0.0254
@<TRIPOS>BOND
     1     1     2    1
     2     2     3    1
     3     3     4    1
     4     4     5    1
     5     5     6    1
     6     6     7    1
     7     7    20    1
     8    20    21    1
     9    21    22    1
    10    22    23   ar
    11    23    24   ar
    12    24    25   ar
    13    25    26   ar
    14    26    27    1
    15    26    28   ar
    16     7     8    1
    17     8     9    1
    18     4    10    1
    19    10    11    1
    20    11    14    1
    21    14    15   ar
    22    15    16   ar
    23    16    17   ar
    24    17    18   ar
    25    18    19   ar
    26    11    12   am
    27    12    13    2
    28    12     2    1
    29     9     4    1
    30    19    14   ar
    31    28    22   ar
@<TRIPOS>MOLECULE
*****
 28 31 0 0 0
SMALL
GASTEIGER

@<TRIPOS>ATOM
      1 C         137.1638  138.0578  167.3209 C.3     1  UNL1        0.0420
      2 C         138.4796  138.6603  166.9259 C.3     1  UNL1        0.1912
      3 O         139.0833  138.3348  165.5920 O.3     1  UNL1       -0.3500
      4 C         140.3990  138.9373  165.1970 C.3     1  UNL1        0.1145
      5 C         141.7147  139.5398  164.8021 C.3     1  UNL1        0.0463
      6 C         142.3184  139.2143  163.4682 C.3     1  UNL1        0.0746
      7 N         141.6064  138.2863  162.5291 N.3     1  UNL1       -0.2722
      8 C         140.2907  137.6838  162.9239 C.3     1  UNL1        0.0746
      9 C         139.6870  138.0093  164.2579 C.3     1  UNL1        0.0463
     10 C         141.1109  139.8653  166.1361 C.3     1  UNL1        0.1254
     11 N         140.5072  140.1908  167.4702 N.am    1  UNL1       -0.2543
     12 C         139.1915  139.5883  167.8650 C.2     1  UNL1        0.2566
     13 O         138.5877  139.9138  169.1991 O.2     1  UNL1       -0.2719
     14 C         141.2191  141.1188  168.4093 C.ar    1  UNL1        0.0540
     15 C         140.5887  142.4239  168.7955 C.ar    1  UNL1        0.0149
     16 C         141.3006  143.3519  169.7346 C.ar    1  UNL1        0.0013
     17 C         142.6430  142.9748  170.2875 C.ar    1  UNL1        0.0001
     18 C         143.2736  141.6697  169.9012 C.ar    1  UNL1        0.0013
     19 C         142.5616  140.7417  168.9621 C.ar    1  UNL1        0.0149
     20 C         142.2102  137.9608  161.1950 C.3     1  UNL1        0.0768
     21 C         143.6018  138.4166  160.8703 C.3     1  UNL1        0.0437
     22 C         143.8275  139.7794  160.2857 C.ar    1  UNL1       -0.0186
     23 C         143.6708  139.9978  158.8100 C.ar    1  UNL1       -0.0041
     24 C         143.8964  141.3606  158.2254 C.ar    1  UNL1        0.0020
     25 C         144.2788  142.5050  159.1164 C.ar    1  UNL1        0.0296
     26 C         144.4355  142.2867  160.5921 C.ar    1  UNL1        0.1398
     27 F         144.8179  143.4311  161.4832 F       1  UNL1       -0.2042
     28 C         144.2099  140.9239  161.1767 C.ar    1  UNL1        0.0254
@<TRIPOS>BOND
     1     1     2    1
     2     2     3    1
     3     3     4    1
     4     4     5    1
     5     5     6    1
     6     6     7    1
     7     7    20    1
     8    20    21    1
     9    21    22    1
    10    22    23   ar
    11    23    24   ar
    12    24    25   ar
    13    25    26   ar
    14    26    27    1
    15    26    28   ar
    16     7     8    1
    17     8     9    1
    18     4    10    1
    19    10    11    1
    20    11    14    1
    21    14    15   ar
    22    15    16   ar
    23    16    17   ar
    24    17    18   ar
    25    18    19   ar
    26    11    12   am
    27    12    13    2
    28    12     2    1
    29     9     4    1
    30    19    14   ar
    31    28    22   ar
@<TRIPOS>MOLECULE
*****
 28 31 0 0 0
SMALL
GASTEIGER

@<TRIPOS>ATOM
      1 C         138.4539  139.2121  164.9668 C.3     1  UNL1        0.0420
      2 C         139.2151  140.4960  165.1161 C.3     1  UNL1        0.1912
      3 O         139.2825  141.4651  163.9733 O.3     1  UNL1       -0.3500
      4 C         140.0437  142.7491  164.1226 C.3     1  UNL1        0.1145
      5 C         140.8048  144.0330  164.2719 C.3     1  UNL1        0.0463
      6 C         140.8722  145.0021  163.1291 C.3     1  UNL1        0.0746
      7 N         140.1786  144.6873  161.8368 N.3     1  UNL1       -0.2722
      8 C         139.4175  143.4035  161.6875 C.3     1  UNL1        0.0746
      9 C         139.3501  142.4343  162.8303 C.3     1  UNL1        0.0463
     10 C         140.7373  143.0638  165.4148 C.3     1  UNL1        0.1254
     11 N         140.6698  142.0946  166.5577 N.am    1  UNL1       -0.2543
     12 C         139.9087  140.8108  166.4083 C.2     1  UNL1        0.2566
     13 O         139.8411  139.8416  167.5513 O.2     1  UNL1       -0.2719
     14 C         141.3634  142.4094  167.8499 C.ar    1  UNL1        0.0540
     15 C         140.6273  143.1306  168.9399 C.ar    1  UNL1        0.0149
     16 C         141.3210  143.4453  170.2321 C.ar    1  UNL1        0.0013
     17 C         142.7506  143.0389  170.4344 C.ar    1  UNL1        0.0001
     18 C         143.4867  142.3177  169.3443 C.ar    1  UNL1        0.0013
     19 C         142.7931  142.0029  168.0521 C.ar    1  UNL1        0.0149
     20 C         140.2462  145.6565  160.6939 C.3     1  UNL1        0.0768
     21 C         140.9916  145.2920  159.4444 C.3     1  UNL1        0.0437
     22 C         140.2520  145.1329  158.1491 C.ar    1  UNL1       -0.0186
     23 C         140.1198  146.2974  157.2130 C.ar    1  UNL1       -0.0041
     24 C         139.3802  146.1384  155.9178 C.ar    1  UNL1        0.0020
     25 C         138.7727  144.8147  155.5588 C.ar    1  UNL1        0.0296
     26 C         138.9048  143.6502  156.4949 C.ar    1  UNL1        0.1398
     27 F         138.2973  142.3266  156.1358 F       1  UNL1       -0.2042
     28 C         139.6444  143.8093  157.7901 C.ar    1  UNL1        0.0254
@<TRIPOS>BOND
     1     1     2    1
     2     2     3    1
     3     3     4    1
     4     4     5    1
     5     5     6    1
     6     6     7    1
     7     7    20    1
     8    20    21    1
     9    21    22    1
    10    22    23   ar
    11    23    24   ar
    12    24    25   ar
    13    25    26   ar
    14    26    27    1
    15    26    28   ar
    16     7     8    1
    17     8     9    1
    18     4    10    1
    19    10    11    1
    20    11    14    1
    21    14    15   ar
    22    15    16   ar
    23    16    17   ar
    24    17    18   ar
    25    18    19   ar
    26    11    12   am
    27    12    13    2
    28    12     2    1
    29     9     4    1
    30    19    14   ar
    31    28    22   ar
@<TRIPOS>MOLECULE
*****
 28 31 0 0 0
SMALL
GASTEIGER

@<TRIPOS>ATOM
      1 C         138.9629  144.7521  165.6830 C.3     1  UNL1        0.0420
      2 C         139.5007  143.8921  164.5778 C.3     1  UNL1        0.1912
      3 O         139.7778  144.4893  163.2301 O.3     1  UNL1       -0.3500
      4 C         140.3156  143.6293  162.1249 C.3     1  UNL1        0.1145
      5 C         140.8534  142.7694  161.0198 C.3     1  UNL1        0.0463
      6 C         141.1305  143.3666  159.6720 C.3     1  UNL1        0.0746
      7 N         140.8699  144.8237  159.4293 N.3     1  UNL1       -0.2722
      8 C         140.3321  145.6836  160.5344 C.3     1  UNL1        0.0746
      9 C         140.0550  145.0865  161.8822 C.3     1  UNL1        0.0463
     10 C         140.5762  142.1722  162.3676 C.3     1  UNL1        0.1254
     11 N         140.2991  141.5751  163.7154 N.am    1  UNL1       -0.2543
     12 C         139.7613  142.4350  164.8205 C.2     1  UNL1        0.2566
     13 O         139.4841  141.8378  166.1684 O.2     1  UNL1       -0.2719
     14 C         140.5597  140.1179  163.9581 C.ar    1  UNL1        0.0540
     15 C         139.4459  139.1232  163.8171 C.ar    1  UNL1        0.0149
     16 C         139.7065  137.6661  164.0598 C.ar    1  UNL1        0.0013
     17 C         141.0809  137.2037  164.4435 C.ar    1  UNL1        0.0001
     18 C         142.1948  138.1985  164.5845 C.ar    1  UNL1        0.0013
     19 C         141.9342  139.6556  164.3418 C.ar    1  UNL1        0.0149
     20 C         141.1471  145.4209  158.0815 C.3     1  UNL1        0.0768
     21 C         140.0937  145.3847  157.0142 C.3     1  UNL1        0.0437
     22 C         139.8828  146.5765  156.1280 C.ar    1  UNL1       -0.0186
     23 C         140.5426  146.6366  154.7823 C.ar    1  UNL1       -0.0041
     24 C         140.3316  147.8284  153.8962 C.ar    1  UNL1        0.0020
     25 C         139.4608  148.9599  154.3558 C.ar    1  UNL1        0.0296
     26 C         138.8009  148.8998  155.7015 C.ar    1  UNL1        0.1398
     27 F         137.9301  150.0314  156.1611 F       1  UNL1       -0.2042
     28 C         139.0119  147.7081  156.5876 C.ar    1  UNL1        0.0254
@<TRIPOS>BOND
     1     1     2    1
     2     2     3    1
     3     3     4    1
     4     4     5    1
     5     5     6    1
     6     6     7    1
     7     7    20    1
     8    20    21    1
     9    21    22    1
    10    22    23   ar
    11    23    24   ar
    12    24    25   ar
    13    25    26   ar
    14    26    27    1
    15    26    28   ar
    16     7     8    1
    17     8     9    1
    18     4    10    1
    19    10    11    1
    20    11    14    1
    21    14    15   ar
    22    15    16   ar
    23    16    17   ar
    24    17    18   ar
    25    18    19   ar
    26    11    12   am
    27    12    13    2
    28    12     2    1
    29     9     4    1
    30    19    14   ar
    31    28    22   ar
@<TRIPOS>MOLECULE
*****
 28 31 0 0 0
SMALL
GASTEIGER

@<TRIPOS>ATOM
      1 C         144.2157  139.1244  164.8796 C.3     1  UNL1        0.0420
      2 C         143.1558  139.6000  163.9307 C.3     1  UNL1        0.1912
      3 O         143.0588  139.0070  162.5563 O.3     1  UNL1       -0.3500
      4 C         141.9988  139.4825  161.6074 C.3     1  UNL1        0.1145
      5 C         140.9390  139.9581  160.6585 C.3     1  UNL1        0.0463
      6 C         140.8419  139.3650  159.2841 C.3     1  UNL1        0.0746
      7 N         141.8048  138.2964  158.8587 N.3     1  UNL1       -0.2722
      8 C         142.8646  137.8208  159.8076 C.3     1  UNL1        0.0746
      9 C         142.9617  138.4139  161.1819 C.3     1  UNL1        0.0463
     10 C         141.0360  140.5511  162.0328 C.3     1  UNL1        0.1254
     11 N         141.1331  141.1442  163.4072 N.am    1  UNL1       -0.2543
     12 C         142.1930  140.6686  164.3561 C.2     1  UNL1        0.2566
     13 O         142.2901  141.2617  165.7305 O.2     1  UNL1       -0.2719
     14 C         140.1703  142.2128  163.8326 C.ar    1  UNL1        0.0540
     15 C         140.6477  143.6230  164.0153 C.ar    1  UNL1        0.0149
     16 C         139.6848  144.6916  164.4408 C.ar    1  UNL1        0.0013
     17 C         138.2446  144.3501  164.6835 C.ar    1  UNL1        0.0001
     18 C         137.7671  142.9398  164.5008 C.ar    1  UNL1        0.0013
     19 C         138.7299  141.8712  164.0753 C.ar    1  UNL1        0.0149
     20 C         141.7077  137.7033  157.4843 C.3     1  UNL1        0.0768
     21 C         142.8493  136.9035  156.9302 C.3     1  UNL1        0.0437
     22 C         142.6711  135.4422  156.6423 C.ar    1  UNL1       -0.0186
     23 C         141.6689  134.9961  155.6193 C.ar    1  UNL1       -0.0041
     24 C         141.4909  133.5348  155.3314 C.ar    1  UNL1        0.0020
     25 C         142.3150  132.5197  156.0664 C.ar    1  UNL1        0.0296
     26 C         143.3172  132.9658  157.0894 C.ar    1  UNL1        0.1398
     27 F         144.1413  131.9506  157.8244 F       1  UNL1       -0.2042
     28 C         143.4953  134.4270  157.3773 C.ar    1  UNL1        0.0254
@<TRIPOS>BOND
     1     1     2    1
     2     2     3    1
     3     3     4    1
     4     4     5    1
     5     5     6    1
     6     6     7    1
     7     7    20    1
     8    20    21    1
     9    21    22    1
    10    22    23   ar
    11    23    24   ar
    12    24    25   ar
    13    25    26   ar
    14    26    27    1
    15    26    28   ar
    16     7     8    1
    17     8     9    1
    18     4    10    1
    19    10    11    1
    20    11    14    1
    21    14    15   ar
    22    15    16   ar
    23    16    17   ar
    24    17    18   ar
    25    18    19   ar
    26    11    12   am
    27    12    13    2
    28    12     2    1
    29     9     4    1
    30    19    14   ar
    31    28    22   ar
@<TRIPOS>MOLECULE
*****
 28 31 0 0 0
SMALL
GASTEIGER

@<TRIPOS>ATOM
      1 C         138.1062  139.3996  165.1951 C.3     1  UNL1        0.0420
      2 C         138.9759  140.6185  165.2851 C.3     1  UNL1        0.1912
      3 O         139.1042  141.5370  164.1062 O.3     1  UNL1       -0.3500
      4 C         139.9739  142.7559  164.1961 C.3     1  UNL1        0.1145
      5 C         140.8435  143.9747  164.2862 C.3     1  UNL1        0.0463
      6 C         140.9719  144.8931  163.1072 C.3     1  UNL1        0.0746
      7 N         140.2305  144.5928  161.8383 N.3     1  UNL1       -0.2722
      8 C         139.3608  143.3740  161.7483 C.3     1  UNL1        0.0746
      9 C         139.2325  142.4555  162.9272 C.3     1  UNL1        0.0463
     10 C         140.7152  143.0562  165.4651 C.3     1  UNL1        0.1254
     11 N         140.5869  142.1377  166.6440 N.am    1  UNL1       -0.2543
     12 C         139.7172  140.9188  166.5540 C.2     1  UNL1        0.2566
     13 O         139.5889  140.0003  167.7330 O.2     1  UNL1       -0.2719
     14 C         141.3282  142.4380  167.9130 C.ar    1  UNL1        0.0540
     15 C         142.7509  141.9910  168.0742 C.ar    1  UNL1        0.0149
     16 C         143.4923  142.2913  169.3431 C.ar    1  UNL1        0.0013
     17 C         142.8109  143.0387  170.4509 C.ar    1  UNL1        0.0001
     18 C         141.3881  143.4857  170.2897 C.ar    1  UNL1        0.0013
     19 C         140.6468  143.1854  169.0208 C.ar    1  UNL1        0.0149
     20 C         140.3589  145.5113  160.6593 C.3     1  UNL1        0.0768
     21 C         140.4715  144.9441  159.2754 C.3     1  UNL1        0.0437
     22 C         141.6867  144.1563  158.8842 C.ar    1  UNL1       -0.0186
     23 C         141.9777  143.8962  157.4359 C.ar    1  UNL1       -0.0041
     24 C         143.1928  143.1085  157.0449 C.ar    1  UNL1        0.0020
     25 C         144.1169  142.5809  158.1021 C.ar    1  UNL1        0.0296
     26 C         143.8259  142.8411  159.5504 C.ar    1  UNL1        0.1398
     27 F         144.7499  142.3135  160.6077 F       1  UNL1       -0.2042
     28 C         142.6107  143.6287  159.9415 C.ar    1  UNL1        0.0254
@<TRIPOS>BOND
     1     1     2    1
     2     2     3    1
     3     3     4    1
     4     4     5    1
     5     5     6    1
     6     6     7    1
     7     7    20    1
     8    20    21    1
     9    21    22    1
    10    22    23   ar
    11    23    24   ar
    12    24    25   ar
    13    25    26   ar
    14    26    27    1
    15    26    28   ar
    16     7     8    1
    17     8     9    1
    18     4    10    1
    19    10    11    1
    20    11    14    1
    21    14    15   ar
    22    15    16   ar
    23    16    17   ar
    24    17    18   ar
    25    18    19   ar
    26    11    12   am
    27    12    13    2
    28    12     2    1
    29     9     4    1
    30    19    14   ar
    31    28    22   ar
@<TRIPOS>MOLECULE
*****
 28 31 0 0 0
SMALL
GASTEIGER

@<TRIPOS>ATOM
      1 C         139.3245  145.1981  163.5662 C.3     1  UNL1        0.0420
      2 C         140.3584  144.5781  162.6737 C.3     1  UNL1        0.1912
      3 O         140.4051  144.9370  161.2180 O.3     1  UNL1       -0.3500
      4 C         141.4391  144.3170  160.3255 C.3     1  UNL1        0.1145
      5 C         142.4731  143.6970  159.4330 C.3     1  UNL1        0.0463
      6 C         142.5198  144.0559  157.9774 C.3     1  UNL1        0.0746
      7 N         141.5326  145.0348  157.4142 N.3     1  UNL1       -0.2722
      8 C         140.4986  145.6548  158.3066 C.3     1  UNL1        0.0746
      9 C         140.4519  145.2959  159.7623 C.3     1  UNL1        0.0463
     10 C         142.4263  143.3381  160.8887 C.3     1  UNL1        0.1254
     11 N         142.3796  142.9792  162.3444 N.am    1  UNL1       -0.2543
     12 C         141.3457  143.5992  163.2369 C.2     1  UNL1        0.2566
     13 O         141.2989  143.2403  164.6926 O.2     1  UNL1       -0.2719
     14 C         143.3668  142.0003  162.9076 C.ar    1  UNL1        0.0540
     15 C         143.0141  140.5450  162.9939 C.ar    1  UNL1        0.0149
     16 C         144.0013  139.5661  163.5571 C.ar    1  UNL1        0.0013
     17 C         145.3412  140.0426  164.0340 C.ar    1  UNL1        0.0001
     18 C         145.6941  141.4980  163.9477 C.ar    1  UNL1        0.0013
     19 C         144.7068  142.4769  163.3845 C.ar    1  UNL1        0.0149
     20 C         141.5793  145.3936  155.9584 C.3     1  UNL1        0.0768
     21 C         140.3117  145.7170  155.2246 C.3     1  UNL1        0.0437
     22 C         139.9733  147.1428  154.9044 C.ar    1  UNL1       -0.0186
     23 C         140.5218  147.7835  153.6640 C.ar    1  UNL1       -0.0041
     24 C         140.1833  149.2093  153.3438 C.ar    1  UNL1        0.0020
     25 C         139.2964  149.9944  154.2641 C.ar    1  UNL1        0.0296
     26 C         138.7479  149.3538  155.5045 C.ar    1  UNL1        0.1398
     27 F         137.8609  150.1389  156.4248 F       1  UNL1       -0.2042
     28 C         139.0863  147.9280  155.8247 C.ar    1  UNL1        0.0254
@<TRIPOS>BOND
     1     1     2    1
     2     2     3    1
     3     3     4    1
     4     4     5    1
     5     5     6    1
     6     6     7    1
     7     7    20    1
     8    20    21    1
     9    21    22    1
    10    22    23   ar
    11    23    24   ar
    12    24    25   ar
    13    25    26   ar
    14    26    27    1
    15    26    28   ar
    16     7     8    1
    17     8     9    1
    18     4    10    1
    19    10    11    1
    20    11    14    1
    21    14    15   ar
    22    15    16   ar
    23    16    17   ar
    24    17    18   ar
    25    18    19   ar
    26    11    12   am
    27    12    13    2
    28    12     2    1
    29     9     4    1
    30    19    14   ar
    31    28    22   ar
