@<TRIPOS>MOLECULE
*****
 39 43 0 0 0
SMALL
GASTEIGER

@<TRIPOS>ATOM
      1 C         139.1164  138.9457  165.7847 C.3     1  UNL1        0.0545
      2 C         138.2985  139.2690  166.9998 C.3     1  UNL1        0.0162
      3 C         139.2268  139.7823  168.0603 C.3     1  UNL1        0.0100
      4 C         139.2951  140.2993  169.4667 C.3     1  UNL1        0.0096
      5 C         140.7290  140.6128  169.7762 C.3     1  UNL1        0.0767
      6 C         141.5469  140.2895  168.5611 C.3     1  UNL1        0.0177
      7 C         140.6185  139.7762  167.5006 C.3     1  UNL1        0.0708
      8 C         140.5502  139.2592  166.0942 C.3     1  UNL1        0.0243
      9 C         142.0102  139.7701  166.9409 C.2     1  UNL1        0.2250
     10 O         143.0219  138.7905  167.4573 O.2     1  UNL1       -0.2749
     11 N         142.3901  140.7437  165.8648 N.am    1  UNL1       -0.2750
     12 C         143.7817  140.7376  165.3052 C.3     1  UNL1        0.1000
     13 C         144.1616  141.7111  164.2291 C.3     1  UNL1        0.0670
     14 C         143.1498  142.6907  163.7128 C.ar    1  UNL1        0.0583
     15 N         143.5297  143.6643  162.6367 N.ar    1  UNL1       -0.2484
     16 C         142.5179  144.6439  162.1203 C.ar    1  UNL1        0.1023
     17 C         141.1262  144.6500  162.6801 C.ar    1  UNL1        0.0902
     18 C         140.7464  143.6765  163.7561 C.ar    1  UNL1        0.0040
     19 C         141.7582  142.6968  164.2725 C.ar    1  UNL1        0.0113
     20 C         141.3783  141.7233  165.3485 C.3     1  UNL1        0.1213
     21 C         140.1145  145.6297  162.1637 C.3     1  UNL1        0.4200
     22 F         139.1027  146.6093  161.6474 F       1  UNL1       -0.1658
     23 F         140.8961  145.7660  160.8907 F       1  UNL1       -0.1658
     24 F         139.3328  145.4934  163.4367 F       1  UNL1       -0.1658
     25 C         141.2529  141.1545  171.0732 C.2     1  UNL1        0.2189
     26 N         142.5495  140.6452  171.6296 N.am    1  UNL1       -0.3288
     27 O         140.4803  142.2055  171.8138 O.2     1  UNL1       -0.2753
     28 H         143.0566  139.9553  171.1435 H       1  UNL1        0.1449
     29 H         142.8933  141.0007  172.4808 H       1  UNL1        0.1449
     30 N         138.5924  138.4040  164.4877 N.3     1  UNL1       -0.2975
     31 H         139.1553  137.5838  164.2623 H       1  UNL1        0.1232
     32 C         139.3440  138.8533  162.0416 C.3     1  UNL1        0.1591
     33 C         139.3318  139.7197  160.8172 C.3     1  UNL1        0.1729
     34 O         138.5560  141.0035  160.8146 O.3     1  UNL1       -0.3511
     35 C         137.7923  141.4208  162.0363 C.3     1  UNL1        0.1437
     36 C         137.8044  140.5543  163.2607 C.3     1  UNL1        0.0503
     37 C         138.5803  139.2705  163.2633 C.3     1  UNL1        0.0865
     38 C         141.5190  137.5399  162.5840 C.3     1  UNL1        0.1742
     39 O         140.1198  137.5695  162.0442 O.3     1  UNL1       -0.3496
@<TRIPOS>BOND
     1    38    39    1
     2    39    32    1
     3    32    33    1
     4    33    34    1
     5    34    35    1
     6    35    36    1
     7    36    37    1
     8    37    30    1
     9     1    30    1
    10     1     2    1
    11     3     2    1
    12     3     4    1
    13     4     5    1
    14     5    25    1
    15    25    26   am
    16    25    27    2
    17     5     6    1
    18     6     7    1
    19     7     9    1
    20     9    10    2
    21     9    11   am
    22    11    12    1
    23    12    13    1
    24    13    14    1
    25    14    15   ar
    26    15    16   ar
    27    16    17   ar
    28    17    21    1
    29    21    22    1
    30    21    23    1
    31    21    24    1
    32    17    18   ar
    33    18    19   ar
    34    19    20    1
    35     7     8    1
    36    37    32    1
    37     8     1    1
    38     7     3    1
    39    20    11    1
    40    19    14   ar
    41    30    31    1
    42    26    28    1
    43    26    29    1
@<TRIPOS>MOLECULE
*****
 39 43 0 0 0
SMALL
GASTEIGER

@<TRIPOS>ATOM
      1 C         139.9298  137.8511  164.0127 C.3     1  UNL1        0.0545
      2 C         138.6704  137.9400  164.8226 C.3     1  UNL1        0.0162
      3 C         138.9857  138.6767  166.0906 C.3     1  UNL1        0.0100
      4 C         138.4022  139.1869  167.3748 C.3     1  UNL1        0.0096
      5 C         139.4959  139.8687  168.1423 C.3     1  UNL1        0.0767
      6 C         140.7554  139.7798  167.3324 C.3     1  UNL1        0.0177
      7 C         140.4401  139.0431  166.0644 C.3     1  UNL1        0.0708
      8 C         141.0235  138.5329  164.7802 C.3     1  UNL1        0.0243
      9 C         141.8944  139.4095  166.0382 C.2     1  UNL1        0.2250
     10 O         142.9028  138.5253  166.7099 O.2     1  UNL1       -0.2749
     11 N         142.3403  140.6602  165.3403 N.am    1  UNL1       -0.2750
     12 C         143.7946  141.0266  165.3140 C.3     1  UNL1        0.1000
     13 C         144.2404  142.2772  164.6161 C.3     1  UNL1        0.0670
     14 C         143.2320  143.1614  163.9444 C.ar    1  UNL1        0.0583
     15 N         143.6779  144.4121  163.2465 N.ar    1  UNL1       -0.2484
     16 C         142.6694  145.2963  162.5748 C.ar    1  UNL1        0.1023
     17 C         141.2151  144.9299  162.6011 C.ar    1  UNL1        0.0902
     18 C         140.7692  143.6793  163.2990 C.ar    1  UNL1        0.0040
     19 C         141.7777  142.7950  163.9707 C.ar    1  UNL1        0.0113
     20 C         141.3318  141.5444  164.6686 C.3     1  UNL1        0.1213
     21 C         140.2066  145.8141  161.9294 C.3     1  UNL1        0.4200
     22 F         139.1982  146.6983  161.2577 F       1  UNL1       -0.1658
     23 F         141.0482  145.8308  160.6878 F       1  UNL1       -0.1658
     24 F         139.3650  145.7974  163.1710 F       1  UNL1       -0.1658
     25 C         139.3549  140.5242  169.4841 C.2     1  UNL1        0.2189
     26 N         139.8353  141.9308  169.6858 N.am    1  UNL1       -0.3288
     27 O         138.7336  139.7731  170.6242 O.2     1  UNL1       -0.2753
     28 H         140.2431  142.4238  168.9376 H       1  UNL1        0.1449
     29 H         139.7427  142.3611  170.5665 H       1  UNL1        0.1449
     30 N         140.0708  137.1955  162.6709 N.3     1  UNL1       -0.2975
     31 H         140.9188  136.6298  162.7072 H       1  UNL1        0.1232
     32 C         141.5044  138.3506  160.8377 C.3     1  UNL1        0.1591
     33 C         141.5972  139.1908  159.5986 C.3     1  UNL1        0.1729
     34 O         140.3491  139.7161  158.9535 O.3     1  UNL1       -0.3511
     35 C         139.0081  139.4013  159.5475 C.3     1  UNL1        0.1437
     36 C         138.9154  138.5611  160.7866 C.3     1  UNL1        0.0503
     37 C         140.1636  138.0357  161.4317 C.3     1  UNL1        0.0865
     38 C         143.6373  138.7486  162.2668 C.3     1  UNL1        0.1742
     39 O         142.7525  137.8252  161.4828 O.3     1  UNL1       -0.3496
@<TRIPOS>BOND
     1    38    39    1
     2    39    32    1
     3    32    33    1
     4    33    34    1
     5    34    35    1
     6    35    36    1
     7    36    37    1
     8    37    30    1
     9     1    30    1
    10     1     2    1
    11     3     2    1
    12     3     4    1
    13     4     5    1
    14     5    25    1
    15    25    26   am
    16    25    27    2
    17     5     6    1
    18     6     7    1
    19     7     9    1
    20     9    10    2
    21     9    11   am
    22    11    12    1
    23    12    13    1
    24    13    14    1
    25    14    15   ar
    26    15    16   ar
    27    16    17   ar
    28    17    21    1
    29    21    22    1
    30    21    23    1
    31    21    24    1
    32    17    18   ar
    33    18    19   ar
    34    19    20    1
    35     7     8    1
    36    37    32    1
    37     8     1    1
    38     7     3    1
    39    20    11    1
    40    19    14   ar
    41    30    31    1
    42    26    28    1
    43    26    29    1
@<TRIPOS>MOLECULE
*****
 39 43 0 0 0
SMALL
GASTEIGER

@<TRIPOS>ATOM
      1 C         139.3214  139.0166  165.6370 C.3     1  UNL1        0.0545
      2 C         138.8817  139.3954  167.0201 C.3     1  UNL1        0.0162
      3 C         140.1065  139.7157  167.8245 C.3     1  UNL1        0.0100
      4 C         140.5917  140.1477  169.1765 C.3     1  UNL1        0.0096
      5 C         142.0884  140.2339  169.1261 C.3     1  UNL1        0.0767
      6 C         142.5282  139.8551  167.7430 C.3     1  UNL1        0.0177
      7 C         141.3034  139.5348  166.9385 C.3     1  UNL1        0.0708
      8 C         140.8181  139.1028  165.5866 C.3     1  UNL1        0.0243
      9 C         142.5001  139.3540  166.0525 C.2     1  UNL1        0.2250
     10 O         143.4511  138.2204  166.2987 O.2     1  UNL1       -0.2749
     11 N         142.7460  140.3068  164.9204 N.am    1  UNL1       -0.2750
     12 C         143.9427  140.1260  164.0344 C.3     1  UNL1        0.1000
     13 C         144.1885  141.0787  162.9022 C.3     1  UNL1        0.0670
     14 C         143.2376  142.2124  162.6561 C.ar    1  UNL1        0.0583
     15 N         143.4834  143.1652  161.5239 N.ar    1  UNL1       -0.2484
     16 C         142.5325  144.2988  161.2778 C.ar    1  UNL1        0.1023
     17 C         141.3357  144.4796  162.1638 C.ar    1  UNL1        0.0902
     18 C         141.0899  143.5268  163.2960 C.ar    1  UNL1        0.0040
     19 C         142.0408  142.3932  163.5421 C.ar    1  UNL1        0.0113
     20 C         141.7950  141.4404  164.6742 C.3     1  UNL1        0.1213
     21 C         140.3847  145.6132  161.9177 C.3     1  UNL1        0.4200
     22 F         139.4338  146.7468  161.6716 F       1  UNL1       -0.1658
     23 F         139.8379  145.4558  163.3056 F       1  UNL1       -0.1658
     24 F         140.9316  145.7706  160.5298 F       1  UNL1       -0.1658
     25 C         142.9875  140.6294  170.2599 C.2     1  UNL1        0.2189
     26 N         143.1321  142.0750  170.6332 N.am    1  UNL1       -0.3288
     27 O         143.7419  139.5794  171.0202 O.2     1  UNL1       -0.2753
     28 H         142.6369  142.7642  170.1341 H       1  UNL1        0.1449
     29 H         143.7221  142.3346  171.3773 H       1  UNL1        0.1449
     30 N         138.4224  138.6211  164.5032 N.3     1  UNL1       -0.2975
     31 H         138.3360  137.6053  164.5365 H       1  UNL1        0.1232
     32 C         138.7546  140.4104  162.6491 C.3     1  UNL1        0.1591
     33 C         139.1234  140.7677  161.2397 C.3     1  UNL1        0.1729
     34 O         139.5288  139.6930  160.2751 O.3     1  UNL1       -0.3511
     35 C         139.5654  138.2608  160.7198 C.3     1  UNL1        0.1437
     36 C         139.1966  137.9035  162.1292 C.3     1  UNL1        0.0503
     37 C         138.7912  138.9784  163.0938 C.3     1  UNL1        0.0865
     38 C         137.5008  142.6308  163.1470 C.3     1  UNL1        0.1742
     39 O         138.3492  141.4851  163.6137 O.3     1  UNL1       -0.3496
@<TRIPOS>BOND
     1    38    39    1
     2    39    32    1
     3    32    33    1
     4    33    34    1
     5    34    35    1
     6    35    36    1
     7    36    37    1
     8    37    30    1
     9     1    30    1
    10     1     2    1
    11     3     2    1
    12     3     4    1
    13     4     5    1
    14     5    25    1
    15    25    26   am
    16    25    27    2
    17     5     6    1
    18     6     7    1
    19     7     9    1
    20     9    10    2
    21     9    11   am
    22    11    12    1
    23    12    13    1
    24    13    14    1
    25    14    15   ar
    26    15    16   ar
    27    16    17   ar
    28    17    21    1
    29    21    22    1
    30    21    23    1
    31    21    24    1
    32    17    18   ar
    33    18    19   ar
    34    19    20    1
    35     7     8    1
    36    37    32    1
    37     8     1    1
    38     7     3    1
    39    20    11    1
    40    19    14   ar
    41    30    31    1
    42    26    28    1
    43    26    29    1
@<TRIPOS>MOLECULE
*****
 39 43 0 0 0
SMALL
GASTEIGER

@<TRIPOS>ATOM
      1 C         144.1599  141.9261  165.2556 C.3     1  UNL1        0.0545
      2 C         143.6942  142.9355  166.2626 C.3     1  UNL1        0.0162
      3 C         142.8059  142.2331  167.2463 C.3     1  UNL1        0.0100
      4 C         141.9691  142.4228  168.4766 C.3     1  UNL1        0.0096
      5 C         141.3686  141.0966  168.8379 C.3     1  UNL1        0.0767
      6 C         141.8343  140.0871  167.8309 C.3     1  UNL1        0.0177
      7 C         142.7226  140.7895  166.8472 C.3     1  UNL1        0.0708
      8 C         143.5594  140.5998  165.6168 C.3     1  UNL1        0.0243
      9 C         142.6393  139.3460  166.4481 C.2     1  UNL1        0.2250
     10 O         143.2876  138.2941  167.2985 O.2     1  UNL1       -0.2749
     11 N         141.9078  138.9544  165.1984 N.am    1  UNL1       -0.2750
     12 C         141.8246  137.5109  164.7993 C.3     1  UNL1        0.1000
     13 C         141.0930  137.1193  163.5497 C.3     1  UNL1        0.0670
     14 C         140.4448  138.1712  162.6993 C.ar    1  UNL1        0.0583
     15 N         139.7133  137.7795  161.4496 N.ar    1  UNL1       -0.2484
     16 C         139.0650  138.8314  160.5992 C.ar    1  UNL1        0.1023
     17 C         139.1483  140.2750  160.9983 C.ar    1  UNL1        0.0902
     18 C         139.8798  140.6666  162.2479 C.ar    1  UNL1        0.0040
     19 C         140.5281  139.6147  163.0984 C.ar    1  UNL1        0.0113
     20 C         141.2596  140.0063  164.3480 C.3     1  UNL1        0.1213
     21 C         138.5000  141.3268  160.1479 C.3     1  UNL1        0.4200
     22 F         137.8518  142.3787  159.2974 F       1  UNL1       -0.1658
     23 F         139.1745  140.7607  158.9335 F       1  UNL1       -0.1658
     24 F         137.8256  141.8930  161.3622 F       1  UNL1       -0.1658
     25 C         140.4617  140.8271  170.0019 C.2     1  UNL1        0.2189
     26 N         140.4972  139.4934  170.6873 N.am    1  UNL1       -0.3288
     27 O         139.5192  141.8914  170.4804 O.2     1  UNL1       -0.2753
     28 H         141.1158  138.7948  170.3733 H       1  UNL1        0.1449
     29 H         139.9020  139.3165  171.4513 H       1  UNL1        0.1449
     30 N         145.0668  142.1955  164.0915 N.3     1  UNL1       -0.2975
     31 H         145.3659  143.1675  164.1701 H       1  UNL1        0.1232
     32 C         144.1689  143.2011  161.8706 C.3     1  UNL1        0.1591
     33 C         143.6666  143.0146  160.4696 C.3     1  UNL1        0.1729
     34 O         143.5600  141.6359  159.8884 O.3     1  UNL1       -0.3511
     35 C         143.9557  140.4437  160.7083 C.3     1  UNL1        0.1437
     36 C         144.4580  140.6302  162.1093 C.3     1  UNL1        0.0503
     37 C         144.5645  142.0090  162.6905 C.3     1  UNL1        0.0865
     38 C         143.1736  145.1164  163.3167 C.3     1  UNL1        0.1742
     39 O         144.2755  144.5798  162.4518 O.3     1  UNL1       -0.3496
@<TRIPOS>BOND
     1    38    39    1
     2    39    32    1
     3    32    33    1
     4    33    34    1
     5    34    35    1
     6    35    36    1
     7    36    37    1
     8    37    30    1
     9     1    30    1
    10     1     2    1
    11     3     2    1
    12     3     4    1
    13     4     5    1
    14     5    25    1
    15    25    26   am
    16    25    27    2
    17     5     6    1
    18     6     7    1
    19     7     9    1
    20     9    10    2
    21     9    11   am
    22    11    12    1
    23    12    13    1
    24    13    14    1
    25    14    15   ar
    26    15    16   ar
    27    16    17   ar
    28    17    21    1
    29    21    22    1
    30    21    23    1
    31    21    24    1
    32    17    18   ar
    33    18    19   ar
    34    19    20    1
    35     7     8    1
    36    37    32    1
    37     8     1    1
    38     7     3    1
    39    20    11    1
    40    19    14   ar
    41    30    31    1
    42    26    28    1
    43    26    29    1
@<TRIPOS>MOLECULE
*****
 39 43 0 0 0
SMALL
GASTEIGER

@<TRIPOS>ATOM
      1 C         138.9528  142.8935  165.2320 C.3     1  UNL1        0.0545
      2 C         139.8600  143.5955  166.1985 C.3     1  UNL1        0.0162
      3 C         140.5588  142.5526  167.0195 C.3     1  UNL1        0.0100
      4 C         141.5514  142.3419  168.1241 C.3     1  UNL1        0.0096
      5 C         141.6895  140.8651  168.3478 C.3     1  UNL1        0.0767
      6 C         140.7823  140.1631  167.3813 C.3     1  UNL1        0.0177
      7 C         140.0835  141.2060  166.5603 C.3     1  UNL1        0.0708
      8 C         139.0909  141.4167  165.4556 C.3     1  UNL1        0.0243
      9 C         139.6082  139.8594  166.1012 C.2     1  UNL1        0.2250
     10 O         138.6705  139.0625  166.9589 O.2     1  UNL1       -0.2749
     11 N         140.0705  139.3098  164.7843 N.am    1  UNL1       -0.2750
     12 C         139.5952  137.9632  164.3251 C.3     1  UNL1        0.1000
     13 C         140.0576  137.4136  163.0083 C.3     1  UNL1        0.0670
     14 C         140.9953  138.2106  162.1506 C.ar    1  UNL1        0.0583
     15 N         141.4576  137.6609  160.8337 N.ar    1  UNL1       -0.2484
     16 C         142.3953  138.4579  159.9760 C.ar    1  UNL1        0.1023
     17 C         142.8706  139.8045  160.4352 C.ar    1  UNL1        0.0902
     18 C         142.4082  140.3541  161.7520 C.ar    1  UNL1        0.0040
     19 C         141.4706  139.5571  162.6097 C.ar    1  UNL1        0.0113
     20 C         141.0082  140.1067  163.9266 C.3     1  UNL1        0.1213
     21 C         143.8083  140.6014  159.5775 C.3     1  UNL1        0.4200
     22 F         144.7460  141.3984  158.7198 F       1  UNL1       -0.1658
     23 F         143.3072  139.8815  158.3607 F       1  UNL1       -0.1658
     24 F         144.3094  141.3213  160.7943 F       1  UNL1       -0.1658
     25 C         142.5788  140.2060  169.3602 C.2     1  UNL1        0.2189
     26 N         142.9800  140.9468  170.6012 N.am    1  UNL1       -0.3288
     27 O         143.0668  138.8062  169.1315 O.2     1  UNL1       -0.2753
     28 H         142.6597  141.8656  170.7513 H       1  UNL1        0.1449
     29 H         143.5637  140.5142  171.2657 H       1  UNL1        0.1449
     30 N         138.0635  143.5526  164.2196 N.3     1  UNL1       -0.2975
     31 H         137.2005  143.0098  164.1880 H       1  UNL1        0.1232
     32 C         138.1173  142.7091  161.7629 C.3     1  UNL1        0.1591
     33 C         138.5822  142.8659  160.3454 C.3     1  UNL1        0.1729
     34 O         139.4583  144.0232  159.9672 O.3     1  UNL1       -0.3511
     35 C         139.8695  145.0237  161.0065 C.3     1  UNL1        0.1437
     36 C         139.4046  144.8668  162.4239 C.3     1  UNL1        0.0503
     37 C         138.5284  143.7095  162.8021 C.3     1  UNL1        0.0865
     38 C         137.7377  140.1470  161.9673 C.3     1  UNL1        0.1742
     39 O         137.2412  141.5518  162.1411 O.3     1  UNL1       -0.3496
@<TRIPOS>BOND
     1    38    39    1
     2    39    32    1
     3    32    33    1
     4    33    34    1
     5    34    35    1
     6    35    36    1
     7    36    37    1
     8    37    30    1
     9     1    30    1
    10     1     2    1
    11     3     2    1
    12     3     4    1
    13     4     5    1
    14     5    25    1
    15    25    26   am
    16    25    27    2
    17     5     6    1
    18     6     7    1
    19     7     9    1
    20     9    10    2
    21     9    11   am
    22    11    12    1
    23    12    13    1
    24    13    14    1
    25    14    15   ar
    26    15    16   ar
    27    16    17   ar
    28    17    21    1
    29    21    22    1
    30    21    23    1
    31    21    24    1
    32    17    18   ar
    33    18    19   ar
    34    19    20    1
    35     7     8    1
    36    37    32    1
    37     8     1    1
    38     7     3    1
    39    20    11    1
    40    19    14   ar
    41    30    31    1
    42    26    28    1
    43    26    29    1
@<TRIPOS>MOLECULE
*****
 39 43 0 0 0
SMALL
GASTEIGER

@<TRIPOS>ATOM
      1 C         141.8213  137.6620  162.3297 C.3     1  UNL1        0.0545
      2 C         140.3839  137.2564  162.4683 C.3     1  UNL1        0.0162
      3 C         139.8997  137.7172  163.8112 C.3     1  UNL1        0.0100
      4 C         138.7121  137.7514  164.7268 C.3     1  UNL1        0.0096
      5 C         139.1164  138.4628  165.9840 C.3     1  UNL1        0.0767
      6 C         140.5538  138.8684  165.8453 C.3     1  UNL1        0.0177
      7 C         141.0380  138.4076  164.5025 C.3     1  UNL1        0.0708
      8 C         142.2256  138.3734  163.5868 C.3     1  UNL1        0.0243
      9 C         142.1762  139.0979  165.1937 C.2     1  UNL1        0.2250
     10 O         143.0818  138.3228  166.1042 O.2     1  UNL1       -0.2749
     11 N         142.4089  140.5635  164.9744 N.am    1  UNL1       -0.2750
     12 C         143.5471  141.2538  165.6656 C.3     1  UNL1        0.1000
     13 C         143.7798  142.7193  165.4463 C.3     1  UNL1        0.0670
     14 C         142.8742  143.4945  164.5357 C.ar    1  UNL1        0.0583
     15 N         143.1069  144.9601  164.3164 N.ar    1  UNL1       -0.2484
     16 C         142.2013  145.7352  163.4059 C.ar    1  UNL1        0.1023
     17 C         141.0631  145.0448  162.7147 C.ar    1  UNL1        0.0902
     18 C         140.8304  143.5793  162.9340 C.ar    1  UNL1        0.0040
     19 C         141.7360  142.8041  163.8445 C.ar    1  UNL1        0.0113
     20 C         141.5033  141.3387  164.0639 C.3     1  UNL1        0.1213
     21 C         140.1575  145.8199  161.8041 C.3     1  UNL1        0.4200
     22 F         139.2519  146.5951  160.8936 F       1  UNL1       -0.1658
     23 F         139.1293  145.8983  162.8934 F       1  UNL1       -0.1658
     24 F         141.1857  145.7416  160.7148 F       1  UNL1       -0.1658
     25 C         138.2374  138.7230  167.1714 C.2     1  UNL1        0.2189
     26 N         138.7235  139.6009  168.2863 N.am    1  UNL1       -0.3288
     27 O         136.8724  138.1054  167.2438 O.2     1  UNL1       -0.2753
     28 H         139.6194  140.0063  168.2388 H       1  UNL1        0.1449
     29 H         138.1466  139.7716  169.0656 H       1  UNL1        0.1449
     30 N         142.7003  137.4017  161.1423 N.3     1  UNL1       -0.2975
     31 H         143.6466  137.2708  161.4995 H       1  UNL1        0.1232
     32 C         143.6914  139.6044  160.1853 C.3     1  UNL1        0.1591
     33 C         143.7812  140.6170  159.0823 C.3     1  UNL1        0.1729
     34 O         142.9695  140.4397  157.8335 O.3     1  UNL1       -0.3511
     35 C         142.0680  139.2497  157.6875 C.3     1  UNL1        0.1437
     36 C         141.9783  138.2370  158.7904 C.3     1  UNL1        0.0503
     37 C         142.7900  138.4144  160.0393 C.3     1  UNL1        0.0865
     38 C         144.6322  141.1396  162.0583 C.3     1  UNL1        0.1742
     39 O         144.5031  139.7817  161.4341 O.3     1  UNL1       -0.3496
@<TRIPOS>BOND
     1    38    39    1
     2    39    32    1
     3    32    33    1
     4    33    34    1
     5    34    35    1
     6    35    36    1
     7    36    37    1
     8    37    30    1
     9     1    30    1
    10     1     2    1
    11     3     2    1
    12     3     4    1
    13     4     5    1
    14     5    25    1
    15    25    26   am
    16    25    27    2
    17     5     6    1
    18     6     7    1
    19     7     9    1
    20     9    10    2
    21     9    11   am
    22    11    12    1
    23    12    13    1
    24    13    14    1
    25    14    15   ar
    26    15    16   ar
    27    16    17   ar
    28    17    21    1
    29    21    22    1
    30    21    23    1
    31    21    24    1
    32    17    18   ar
    33    18    19   ar
    34    19    20    1
    35     7     8    1
    36    37    32    1
    37     8     1    1
    38     7     3    1
    39    20    11    1
    40    19    14   ar
    41    30    31    1
    42    26    28    1
    43    26    29    1
@<TRIPOS>MOLECULE
*****
 39 43 0 0 0
SMALL
GASTEIGER

@<TRIPOS>ATOM
      1 C         142.4665  138.9022  165.9387 C.3     1  UNL1        0.0545
      2 C         143.3385  139.5781  166.9548 C.3     1  UNL1        0.0162
      3 C         142.4589  140.4092  167.8412 C.3     1  UNL1        0.0100
      4 C         142.4541  141.3405  169.0170 C.3     1  UNL1        0.0096
      5 C         141.0355  141.7538  169.2753 C.3     1  UNL1        0.0767
      6 C         140.1635  141.0779  168.2591 C.3     1  UNL1        0.0177
      7 C         141.0431  140.2469  167.3728 C.3     1  UNL1        0.0708
      8 C         141.0478  139.3155  166.1970 C.3     1  UNL1        0.0243
      9 C         139.6274  140.0846  166.9044 C.2     1  UNL1        0.2250
     10 O         138.6244  139.3879  167.7754 O.2     1  UNL1       -0.2749
     11 N         139.2147  140.6189  165.5649 N.am    1  UNL1       -0.2750
     12 C         137.7990  140.4566  165.0965 C.3     1  UNL1        0.1000
     13 C         137.3863  140.9909  163.7571 C.3     1  UNL1        0.0670
     14 C         138.3893  141.6876  162.8860 C.ar    1  UNL1        0.0583
     15 N         137.9765  142.2220  161.5465 N.ar    1  UNL1       -0.2484
     16 C         138.9795  142.9186  160.6755 C.ar    1  UNL1        0.1023
     17 C         140.3953  143.0809  161.1440 C.ar    1  UNL1        0.0902
     18 C         140.8079  142.5466  162.4834 C.ar    1  UNL1        0.0040
     19 C         139.8050  141.8499  163.3544 C.ar    1  UNL1        0.0113
     20 C         140.2176  141.3156  164.6939 C.3     1  UNL1        0.1213
     21 C         141.3982  143.7776  160.2730 C.3     1  UNL1        0.4200
     22 F         142.4012  144.4742  159.4020 F       1  UNL1       -0.1658
     23 F         141.2867  142.6747  159.2624 F       1  UNL1       -0.1658
     24 F         141.5098  144.8804  161.2835 F       1  UNL1       -0.1658
     25 C         140.5706  142.6804  170.3595 C.2     1  UNL1        0.2189
     26 N         140.1858  144.0913  170.0264 N.am    1  UNL1       -0.3288
     27 O         140.4905  142.1959  171.7769 O.2     1  UNL1       -0.2753
     28 H         140.2384  144.4093  169.0961 H       1  UNL1        0.1449
     29 H         139.8807  144.6995  170.7379 H       1  UNL1        0.1449
     30 N         142.9314  137.9757  164.8545 N.3     1  UNL1       -0.2975
     31 H         143.8720  137.6737  165.1084 H       1  UNL1        0.1232
     32 C         141.9689  138.0083  162.4415 C.3     1  UNL1        0.1591
     33 C         142.0369  138.4890  161.0222 C.3     1  UNL1        0.1729
     34 O         143.1352  139.4177  160.5966 O.3     1  UNL1       -0.3511
     35 C         144.1657  139.8657  161.5904 C.3     1  UNL1        0.1437
     36 C         144.0978  139.3851  163.0096 C.3     1  UNL1        0.0503
     37 C         142.9993  138.4563  163.4352 C.3     1  UNL1        0.0865
     38 C         139.5195  137.6278  163.2199 C.3     1  UNL1        0.1742
     39 O         140.8706  137.0797  162.8670 O.3     1  UNL1       -0.3496
@<TRIPOS>BOND
     1    38    39    1
     2    39    32    1
     3    32    33    1
     4    33    34    1
     5    34    35    1
     6    35    36    1
     7    36    37    1
     8    37    30    1
     9     1    30    1
    10     1     2    1
    11     3     2    1
    12     3     4    1
    13     4     5    1
    14     5    25    1
    15    25    26   am
    16    25    27    2
    17     5     6    1
    18     6     7    1
    19     7     9    1
    20     9    10    2
    21     9    11   am
    22    11    12    1
    23    12    13    1
    24    13    14    1
    25    14    15   ar
    26    15    16   ar
    27    16    17   ar
    28    17    21    1
    29    21    22    1
    30    21    23    1
    31    21    24    1
    32    17    18   ar
    33    18    19   ar
    34    19    20    1
    35     7     8    1
    36    37    32    1
    37     8     1    1
    38     7     3    1
    39    20    11    1
    40    19    14   ar
    41    30    31    1
    42    26    28    1
    43    26    29    1
@<TRIPOS>MOLECULE
*****
 39 43 0 0 0
SMALL
GASTEIGER

@<TRIPOS>ATOM
      1 C         138.4118  139.9933  165.8260 C.3     1  UNL1        0.0545
      2 C         138.6106  139.2177  167.0944 C.3     1  UNL1        0.0162
      3 C         139.5431  139.9976  167.9732 C.3     1  UNL1        0.0100
      4 C         140.2423  140.0002  169.3002 C.3     1  UNL1        0.0096
      5 C         141.0519  141.2595  169.3951 C.3     1  UNL1        0.0767
      6 C         140.8530  142.0350  168.1267 C.3     1  UNL1        0.0177
      7 C         139.9206  141.2552  167.2479 C.3     1  UNL1        0.0708
      8 C         139.2213  141.2525  165.9208 C.3     1  UNL1        0.0243
      9 C         140.2980  142.5127  166.5226 C.2     1  UNL1        0.2250
     10 O         139.9390  143.8490  167.1016 O.2     1  UNL1       -0.2749
     11 N         141.0344  142.4340  165.2181 N.am    1  UNL1       -0.2750
     12 C         141.4118  143.6915  164.4928 C.3     1  UNL1        0.1000
     13 C         142.1482  143.6127  163.1884 C.3     1  UNL1        0.0670
     14 C         142.5071  142.2764  162.6093 C.ar    1  UNL1        0.0583
     15 N         143.2436  142.1976  161.3048 N.ar    1  UNL1       -0.2484
     16 C         143.6025  140.8613  160.7257 C.ar    1  UNL1        0.1023
     17 C         143.2251  139.6037  161.4511 C.ar    1  UNL1        0.0902
     18 C         142.4887  139.6825  162.7555 C.ar    1  UNL1        0.0040
     19 C         142.1297  141.0188  163.3346 C.ar    1  UNL1        0.0113
     20 C         141.3934  141.0976  164.6390 C.3     1  UNL1        0.1213
     21 C         143.5841  138.2673  160.8720 C.3     1  UNL1        0.4200
     22 F         143.9430  136.9310  160.2929 F       1  UNL1       -0.1658
     23 F         143.4005  137.6342  162.2194 F       1  UNL1       -0.1658
     24 F         143.7676  138.9005  159.5247 F       1  UNL1       -0.1658
     25 C         141.9098  141.6708  170.5548 C.2     1  UNL1        0.2189
     26 N         142.4491  140.6331  171.4940 N.am    1  UNL1       -0.3288
     27 O         142.2282  143.1200  170.7753 O.2     1  UNL1       -0.2753
     28 H         142.2401  139.6820  171.3493 H       1  UNL1        0.1449
     29 H         143.0122  140.9031  172.2552 H       1  UNL1        0.1449
     30 N         137.5539  139.5819  164.6662 N.3     1  UNL1       -0.2975
     31 H         137.1580  138.6717  164.9011 H       1  UNL1        0.1232
     32 C         137.9737  140.5514  162.2927 C.3     1  UNL1        0.1591
     33 C         138.5743  140.4223  160.9242 C.3     1  UNL1        0.1729
     34 O         139.3555  139.1945  160.5608 O.3     1  UNL1       -0.3511
     35 C         139.5363  138.0958  161.5659 C.3     1  UNL1        0.1437
     36 C         138.9357  138.2249  162.9344 C.3     1  UNL1        0.0503
     37 C         138.1544  139.4528  163.2977 C.3     1  UNL1        0.0865
     38 C         137.8788  143.1112  162.7272 C.3     1  UNL1        0.1742
     39 O         137.1925  141.7792  162.6561 O.3     1  UNL1       -0.3496
@<TRIPOS>BOND
     1    38    39    1
     2    39    32    1
     3    32    33    1
     4    33    34    1
     5    34    35    1
     6    35    36    1
     7    36    37    1
     8    37    30    1
     9     1    30    1
    10     1     2    1
    11     3     2    1
    12     3     4    1
    13     4     5    1
    14     5    25    1
    15    25    26   am
    16    25    27    2
    17     5     6    1
    18     6     7    1
    19     7     9    1
    20     9    10    2
    21     9    11   am
    22    11    12    1
    23    12    13    1
    24    13    14    1
    25    14    15   ar
    26    15    16   ar
    27    16    17   ar
    28    17    21    1
    29    21    22    1
    30    21    23    1
    31    21    24    1
    32    17    18   ar
    33    18    19   ar
    34    19    20    1
    35     7     8    1
    36    37    32    1
    37     8     1    1
    38     7     3    1
    39    20    11    1
    40    19    14   ar
    41    30    31    1
    42    26    28    1
    43    26    29    1
@<TRIPOS>MOLECULE
*****
 39 43 0 0 0
SMALL
GASTEIGER

@<TRIPOS>ATOM
      1 C         142.5167  138.9558  165.9936 C.3     1  UNL1        0.0545
      2 C         143.3696  139.6586  167.0079 C.3     1  UNL1        0.0162
      3 C         142.4685  140.4786  167.8829 C.3     1  UNL1        0.0100
      4 C         142.4387  141.4197  169.0505 C.3     1  UNL1        0.0096
      5 C         141.0105  141.8054  169.2987 C.3     1  UNL1        0.0767
      6 C         140.1576  141.1026  168.2844 C.3     1  UNL1        0.0177
      7 C         141.0587  140.2826  167.4094 C.3     1  UNL1        0.0708
      8 C         141.0885  139.3415  166.2418 C.3     1  UNL1        0.0243
      9 C         139.6490  140.0867  166.9359 C.2     1  UNL1        0.2250
     10 O         138.6659  139.3460  167.7933 O.2     1  UNL1       -0.2749
     11 N         139.2222  140.6314  165.6050 N.am    1  UNL1       -0.2750
     12 C         137.8125  140.4354  165.1315 C.3     1  UNL1        0.1000
     13 C         137.3858  140.9801  163.8007 C.3     1  UNL1        0.0670
     14 C         138.3688  141.7208  162.9433 C.ar    1  UNL1        0.0583
     15 N         137.9421  142.2655  161.6124 N.ar    1  UNL1       -0.2484
     16 C         138.9251  143.0061  160.7550 C.ar    1  UNL1        0.1023
     17 C         140.3349  143.2021  161.2286 C.ar    1  UNL1        0.0902
     18 C         140.7616  142.6574  162.5594 C.ar    1  UNL1        0.0040
     19 C         139.7785  141.9167  163.4168 C.ar    1  UNL1        0.0113
     20 C         140.2052  141.3720  164.7476 C.3     1  UNL1        0.1213
     21 C         141.3179  143.9428  160.3712 C.3     1  UNL1        0.4200
     22 F         142.3009  144.6835  159.5139 F       1  UNL1       -0.1658
     23 F         141.6934  144.8007  161.5430 F       1  UNL1       -0.1658
     24 F         140.9424  143.0848  159.1995 F       1  UNL1       -0.1658
     25 C         140.5211  142.7313  170.3726 C.2     1  UNL1        0.2189
     26 N         140.1144  144.1330  170.0264 N.am    1  UNL1       -0.3288
     27 O         140.4384  142.2555  171.7927 O.2     1  UNL1       -0.2753
     28 H         140.1687  144.4453  169.0943 H       1  UNL1        0.1449
     29 H         139.7933  144.7407  170.7312 H       1  UNL1        0.1449
     30 N         143.0061  138.0299  164.9197 N.3     1  UNL1       -0.2975
     31 H         143.9722  137.7970  165.1494 H       1  UNL1        0.1232
     32 C         144.0413  139.4262  162.9887 C.3     1  UNL1        0.1591
     33 C         144.0315  139.8684  161.5554 C.3     1  UNL1        0.1729
     34 O         142.9767  139.3566  160.6198 O.3     1  UNL1       -0.3511
     35 C         141.9317  138.4024  161.1174 C.3     1  UNL1        0.1437
     36 C         141.9414  137.9602  162.5507 C.3     1  UNL1        0.0503
     37 C         142.9963  138.4721  163.4864 C.3     1  UNL1        0.0865
     38 C         145.6380  141.3266  163.7562 C.3     1  UNL1        0.1742
     39 O         145.0961  139.9380  163.9243 O.3     1  UNL1       -0.3496
@<TRIPOS>BOND
     1    38    39    1
     2    39    32    1
     3    32    33    1
     4    33    34    1
     5    34    35    1
     6    35    36    1
     7    36    37    1
     8    37    30    1
     9     1    30    1
    10     1     2    1
    11     3     2    1
    12     3     4    1
    13     4     5    1
    14     5    25    1
    15    25    26   am
    16    25    27    2
    17     5     6    1
    18     6     7    1
    19     7     9    1
    20     9    10    2
    21     9    11   am
    22    11    12    1
    23    12    13    1
    24    13    14    1
    25    14    15   ar
    26    15    16   ar
    27    16    17   ar
    28    17    21    1
    29    21    22    1
    30    21    23    1
    31    21    24    1
    32    17    18   ar
    33    18    19   ar
    34    19    20    1
    35     7     8    1
    36    37    32    1
    37     8     1    1
    38     7     3    1
    39    20    11    1
    40    19    14   ar
    41    30    31    1
    42    26    28    1
    43    26    29    1
