@<TRIPOS>MOLECULE
*****
 23 26 0 0 0
SMALL
GASTEIGER

@<TRIPOS>ATOM
      1 O         137.4830  138.2201  166.6551 O.2     1  UNL1       -0.2666
      2 C         138.7306  138.9911  166.3402 C.2     1  UNL1        0.2837
      3 C         139.4495  139.7315  167.4288 C.ar    1  UNL1        0.1985
      4 N         139.1685  139.8830  168.8944 N.ar    1  UNL1       -0.2226
      5 C         140.2424  140.7476  169.4854 C.ar    1  UNL1        0.0993
      6 C         140.4820  141.2357  170.8833 C.ar    1  UNL1        0.0207
      7 C         141.6664  142.1068  171.1808 C.ar    1  UNL1        0.0021
      8 C         142.6111  142.4897  170.0804 C.ar    1  UNL1        0.0082
      9 C         142.3714  142.0016  168.6825 C.ar    1  UNL1        0.0518
     10 BR        143.3161  142.3845  167.5821 Br      1  UNL1       -0.0474
     11 C         141.1871  141.1306  168.3850 C.ar    1  UNL1        0.0853
     12 N         140.6970  140.5026  167.1139 N.ar    1  UNL1       -0.3056
     13 C         141.2256  140.5332  165.7105 C.3     1  UNL1        0.1291
     14 C         140.5067  139.7928  164.6219 C.3     1  UNL1        0.1186
     15 N         139.2592  139.0218  164.9368 N.am    1  UNL1       -0.2674
     16 C         138.5402  138.2813  163.8482 C.3     1  UNL1        0.1228
     17 C         138.5951  138.7846  162.4362 C.ar    1  UNL1        0.0252
     18 C         139.3770  138.0312  161.4014 C.ar    1  UNL1       -0.0004
     19 C         139.4319  138.5344  159.9893 C.ar    1  UNL1       -0.0001
     20 C         138.7048  139.7911  159.6122 C.ar    1  UNL1        0.0023
     21 C         137.9229  140.5445  160.6471 C.ar    1  UNL1        0.0294
     22 C         137.8680  140.0412  162.0591 C.ar    1  UNL1        0.1377
     23 F         137.0861  140.7946  163.0940 F       1  UNL1       -0.2044
@<TRIPOS>BOND
     1     1     2    2
     2     2     3    1
     3     3     4   ar
     4     4     5   ar
     5     5     6   ar
     6     6     7   ar
     7     7     8   ar
     8     8     9   ar
     9     9    10    1
    10     9    11   ar
    11    11    12   ar
    12    12    13    1
    13    13    14    1
    14    14    15    1
    15    15    16    1
    16    16    17    1
    17    17    18   ar
    18    18    19   ar
    19    19    20   ar
    20    20    21   ar
    21    21    22   ar
    22    22    23    1
    23    15     2   am
    24    22    17   ar
    25    12     3   ar
    26    11     5   ar
@<TRIPOS>MOLECULE
*****
 23 26 0 0 0
SMALL
GASTEIGER

@<TRIPOS>ATOM
      1 O         141.6561  139.1721  163.7217 O.2     1  UNL1       -0.2666
      2 C         140.7555  139.3162  164.9126 C.2     1  UNL1        0.2837
      3 C         141.2148  140.0933  166.1107 C.ar    1  UNL1        0.1985
      4 N         142.4920  140.8230  166.4044 N.ar    1  UNL1       -0.2226
      5 C         142.3808  141.4180  167.7769 C.ar    1  UNL1        0.0993
      6 C         143.3312  142.2427  168.5933 C.ar    1  UNL1        0.0207
      7 C         142.9356  142.7054  169.9642 C.ar    1  UNL1        0.0021
      8 C         141.5897  142.3435  170.5186 C.ar    1  UNL1        0.0082
      9 C         140.6393  141.5188  169.7022 C.ar    1  UNL1        0.0518
     10 BR        139.2933  141.1569  170.2566 Br      1  UNL1       -0.0474
     11 C         141.0348  141.0561  168.3313 C.ar    1  UNL1        0.0853
     12 N         140.3143  140.2373  167.3015 N.ar    1  UNL1       -0.3056
     13 C         138.9544  139.6044  167.2944 C.3     1  UNL1        0.1291
     14 C         138.4951  138.8273  166.0963 C.3     1  UNL1        0.1186
     15 N         139.3957  138.6832  164.9055 N.am    1  UNL1       -0.2674
     16 C         138.9364  137.9062  163.7074 C.3     1  UNL1        0.1228
     17 C         138.7836  138.5919  162.3821 C.ar    1  UNL1        0.0252
     18 C         139.4686  138.0383  161.1679 C.ar    1  UNL1       -0.0004
     19 C         139.3159  138.7241  159.8425 C.ar    1  UNL1       -0.0001
     20 C         138.4782  139.9634  159.7315 C.ar    1  UNL1        0.0023
     21 C         137.7932  140.5170  160.9458 C.ar    1  UNL1        0.0294
     22 C         137.9460  139.8313  162.2711 C.ar    1  UNL1        0.1377
     23 F         137.2611  140.3848  163.4853 F       1  UNL1       -0.2044
@<TRIPOS>BOND
     1     1     2    2
     2     2     3    1
     3     3     4   ar
     4     4     5   ar
     5     5     6   ar
     6     6     7   ar
     7     7     8   ar
     8     8     9   ar
     9     9    10    1
    10     9    11   ar
    11    11    12   ar
    12    12    13    1
    13    13    14    1
    14    14    15    1
    15    15    16    1
    16    16    17    1
    17    17    18   ar
    18    18    19   ar
    19    19    20   ar
    20    20    21   ar
    21    21    22   ar
    22    22    23    1
    23    15     2   am
    24    22    17   ar
    25    12     3   ar
    26    11     5   ar
@<TRIPOS>MOLECULE
*****
 23 26 0 0 0
SMALL
GASTEIGER

@<TRIPOS>ATOM
      1 O         138.6291  145.0420  163.8257 O.2     1  UNL1       -0.2666
      2 C         139.8069  144.3167  163.2454 C.2     1  UNL1        0.2837
      3 C         140.2023  144.5501  161.8174 C.ar    1  UNL1        0.1985
      4 N         139.6258  145.4289  160.7471 N.ar    1  UNL1       -0.2226
      5 C         140.4473  145.2467  159.5053 C.ar    1  UNL1        0.0993
      6 C         140.3481  145.8554  158.1380 C.ar    1  UNL1        0.0207
      7 C         141.3331  145.4727  157.0735 C.ar    1  UNL1        0.0021
      8 C         142.4173  144.4814  157.3763 C.ar    1  UNL1        0.0082
      9 C         142.5165  143.8726  158.7436 C.ar    1  UNL1        0.0518
     10 BR        143.6007  142.8813  159.0464 Br      1  UNL1       -0.0474
     11 C         141.5315  144.2553  159.8081 C.ar    1  UNL1        0.0853
     12 N         141.3800  143.8248  161.2370 N.ar    1  UNL1       -0.3056
     13 C         142.1624  142.8661  162.0847 C.3     1  UNL1        0.1291
     14 C         141.7671  142.6326  163.5127 C.3     1  UNL1        0.1186
     15 N         140.5893  143.3579  164.0931 N.am    1  UNL1       -0.2674
     16 C         140.1940  143.1245  165.5211 C.3     1  UNL1        0.1228
     17 C         139.6214  141.8010  165.9340 C.ar    1  UNL1        0.0252
     18 C         138.6851  141.0702  165.0179 C.ar    1  UNL1       -0.0004
     19 C         138.1125  139.7467  165.4309 C.ar    1  UNL1       -0.0001
     20 C         138.4763  139.1539  166.7599 C.ar    1  UNL1        0.0023
     21 C         139.4127  139.8848  167.6761 C.ar    1  UNL1        0.0294
     22 C         139.9852  141.2083  167.2631 C.ar    1  UNL1        0.1377
     23 F         140.9215  141.9391  168.1791 F       1  UNL1       -0.2044
@<TRIPOS>BOND
     1     1     2    2
     2     2     3    1
     3     3     4   ar
     4     4     5   ar
     5     5     6   ar
     6     6     7   ar
     7     7     8   ar
     8     8     9   ar
     9     9    10    1
    10     9    11   ar
    11    11    12   ar
    12    12    13    1
    13    13    14    1
    14    14    15    1
    15    15    16    1
    16    16    17    1
    17    17    18   ar
    18    18    19   ar
    19    19    20   ar
    20    20    21   ar
    21    21    22   ar
    22    22    23    1
    23    15     2   am
    24    22    17   ar
    25    12     3   ar
    26    11     5   ar
@<TRIPOS>MOLECULE
*****
 23 26 0 0 0
SMALL
GASTEIGER

@<TRIPOS>ATOM
      1 O         138.3260  143.0595  160.8291 O.2     1  UNL1       -0.2666
      2 C         139.1509  143.3340  162.0515 C.2     1  UNL1        0.2837
      3 C         139.0578  142.4226  163.2392 C.ar    1  UNL1        0.1985
      4 N         138.2478  141.1862  163.4947 N.ar    1  UNL1       -0.2226
      5 C         138.5720  140.6965  164.8749 C.ar    1  UNL1        0.0993
      6 C         138.0777  139.5210  165.6647 C.ar    1  UNL1        0.0207
      7 C         138.5938  139.2793  167.0522 C.ar    1  UNL1        0.0021
      8 C         139.6043  140.2130  167.6498 C.ar    1  UNL1        0.0082
      9 C         140.0986  141.3885  166.8600 C.ar    1  UNL1        0.0518
     10 BR        141.1090  142.3222  167.4576 Br      1  UNL1       -0.0474
     11 C         139.5824  141.6302  165.4725 C.ar    1  UNL1        0.0853
     12 N         139.8827  142.6970  164.4616 N.ar    1  UNL1       -0.3056
     13 C         140.8006  143.8828  164.4963 C.3     1  UNL1        0.1291
     14 C         140.8937  144.7942  163.3085 C.3     1  UNL1        0.1186
     15 N         140.0688  144.5198  162.0861 N.am    1  UNL1       -0.2674
     16 C         140.1619  145.4311  160.8984 C.3     1  UNL1        0.1228
     17 C         140.9630  145.0202  159.6986 C.ar    1  UNL1        0.0252
     18 C         142.0202  143.9641  159.8286 C.ar    1  UNL1       -0.0004
     19 C         142.8213  143.5531  158.6288 C.ar    1  UNL1       -0.0001
     20 C         142.5651  144.1982  157.2991 C.ar    1  UNL1        0.0023
     21 C         141.5078  145.2544  157.1691 C.ar    1  UNL1        0.0294
     22 C         140.7068  145.6653  158.3689 C.ar    1  UNL1        0.1377
     23 F         139.6496  146.7214  158.2390 F       1  UNL1       -0.2044
@<TRIPOS>BOND
     1     1     2    2
     2     2     3    1
     3     3     4   ar
     4     4     5   ar
     5     5     6   ar
     6     6     7   ar
     7     7     8   ar
     8     8     9   ar
     9     9    10    1
    10     9    11   ar
    11    11    12   ar
    12    12    13    1
    13    13    14    1
    14    14    15    1
    15    15    16    1
    16    16    17    1
    17    17    18   ar
    18    18    19   ar
    19    19    20   ar
    20    20    21   ar
    21    21    22   ar
    22    22    23    1
    23    15     2   am
    24    22    17   ar
    25    12     3   ar
    26    11     5   ar
@<TRIPOS>MOLECULE
*****
 23 26 0 0 0
SMALL
GASTEIGER

@<TRIPOS>ATOM
      1 O         138.7321  137.4595  165.4048 O.2     1  UNL1       -0.2666
      2 C         139.9572  138.3051  165.5895 C.2     1  UNL1        0.2837
      3 C         140.0407  139.2630  166.7408 C.ar    1  UNL1        0.1985
      4 N         139.0813  139.5894  167.8466 N.ar    1  UNL1       -0.2226
      5 C         139.7133  140.6367  168.7148 C.ar    1  UNL1        0.0993
      6 C         139.2339  141.3395  169.9501 C.ar    1  UNL1        0.0207
      7 C         140.1047  142.3633  170.6161 C.ar    1  UNL1        0.0021
      8 C         141.4548  142.6842  170.0468 C.ar    1  UNL1        0.0082
      9 C         141.9342  141.9814  168.8115 C.ar    1  UNL1        0.0518
     10 BR        143.2844  142.3023  168.2422 Br      1  UNL1       -0.0474
     11 C         141.0635  140.9576  168.1455 C.ar    1  UNL1        0.0853
     12 N         141.2658  140.1086  166.9255 N.ar    1  UNL1       -0.3056
     13 C         142.4073  139.9963  165.9589 C.3     1  UNL1        0.1291
     14 C         142.3237  139.0384  164.8076 C.3     1  UNL1        0.1186
     15 N         141.0987  138.1928  164.6229 N.am    1  UNL1       -0.2674
     16 C         141.0151  137.2349  163.4716 C.3     1  UNL1        0.1228
     17 C         140.8647  137.7549  162.0727 C.ar    1  UNL1        0.0252
     18 C         139.5032  138.0895  161.5393 C.ar    1  UNL1       -0.0004
     19 C         139.3527  138.6095  160.1404 C.ar    1  UNL1       -0.0001
     20 C         140.5637  138.7949  159.2748 C.ar    1  UNL1        0.0023
     21 C         141.9252  138.4603  159.8082 C.ar    1  UNL1        0.0294
     22 C         142.0757  137.9403  161.2071 C.ar    1  UNL1        0.1377
     23 F         143.4370  137.6057  161.7406 F       1  UNL1       -0.2044
@<TRIPOS>BOND
     1     1     2    2
     2     2     3    1
     3     3     4   ar
     4     4     5   ar
     5     5     6   ar
     6     6     7   ar
     7     7     8   ar
     8     8     9   ar
     9     9    10    1
    10     9    11   ar
    11    11    12   ar
    12    12    13    1
    13    13    14    1
    14    14    15    1
    15    15    16    1
    16    16    17    1
    17    17    18   ar
    18    18    19   ar
    19    19    20   ar
    20    20    21   ar
    21    21    22   ar
    22    22    23    1
    23    15     2   am
    24    22    17   ar
    25    12     3   ar
    26    11     5   ar
@<TRIPOS>MOLECULE
*****
 23 26 0 0 0
SMALL
GASTEIGER

@<TRIPOS>ATOM
      1 O         141.6603  140.1068  164.7404 O.2     1  UNL1       -0.2666
      2 C         141.0651  141.4704  164.5493 C.2     1  UNL1        0.2837
      3 C         141.1482  142.1444  163.2119 C.ar    1  UNL1        0.1985
      4 N         141.7503  141.7146  161.9070 N.ar    1  UNL1       -0.2226
      5 C         141.5272  142.8124  160.9095 C.ar    1  UNL1        0.0993
      6 C         141.9023  142.9460  159.4634 C.ar    1  UNL1        0.0207
      7 C         141.5373  144.1880  158.7056 C.ar    1  UNL1        0.0021
      8 C         140.7974  145.2964  159.3940 C.ar    1  UNL1        0.0082
      9 C         140.4223  145.1628  160.8402 C.ar    1  UNL1        0.0518
     10 BR        139.6823  146.2712  161.5286 Br      1  UNL1       -0.0474
     11 C         140.7872  143.9208  161.5979 C.ar    1  UNL1        0.0853
     12 N         140.5530  143.5079  163.0209 N.ar    1  UNL1       -0.3056
     13 C         139.8746  144.1974  164.1673 C.3     1  UNL1        0.1291
     14 C         139.7915  143.5234  165.5048 C.3     1  UNL1        0.1186
     15 N         140.3867  142.1599  165.6958 N.am    1  UNL1       -0.2674
     16 C         140.3035  141.4858  167.0333 C.3     1  UNL1        0.1228
     17 C         141.1320  141.9874  168.1787 C.ar    1  UNL1        0.0252
     18 C         140.6017  143.0712  169.0698 C.ar    1  UNL1       -0.0004
     19 C         141.4302  143.5729  170.2153 C.ar    1  UNL1       -0.0001
     20 C         142.7890  142.9906  170.4696 C.ar    1  UNL1        0.0023
     21 C         143.3193  141.9067  169.5785 C.ar    1  UNL1        0.0294
     22 C         142.4908  141.4051  168.4330 C.ar    1  UNL1        0.1377
     23 F         143.0210  140.3213  167.5419 F       1  UNL1       -0.2044
@<TRIPOS>BOND
     1     1     2    2
     2     2     3    1
     3     3     4   ar
     4     4     5   ar
     5     5     6   ar
     6     6     7   ar
     7     7     8   ar
     8     8     9   ar
     9     9    10    1
    10     9    11   ar
    11    11    12   ar
    12    12    13    1
    13    13    14    1
    14    14    15    1
    15    15    16    1
    16    16    17    1
    17    17    18   ar
    18    18    19   ar
    19    19    20   ar
    20    20    21   ar
    21    21    22   ar
    22    22    23    1
    23    15     2   am
    24    22    17   ar
    25    12     3   ar
    26    11     5   ar
@<TRIPOS>MOLECULE
*****
 23 26 0 0 0
SMALL
GASTEIGER

@<TRIPOS>ATOM
      1 O         145.0103  139.3333  164.1287 O.2     1  UNL1       -0.2666
      2 C         143.5460  139.0082  164.1381 C.2     1  UNL1        0.2837
      3 C         142.7049  139.3703  165.3261 C.ar    1  UNL1        0.1985
      4 N         143.0377  140.0469  166.6228 N.ar    1  UNL1       -0.2226
      5 C         141.7791  140.1400  167.4336 C.ar    1  UNL1        0.0993
      6 C         141.5010  140.7085  168.7935 C.ar    1  UNL1        0.0207
      7 C         140.1121  140.6579  169.3577 C.ar    1  UNL1        0.0021
      8 C         139.0014  140.0387  168.5621 C.ar    1  UNL1        0.0082
      9 C         139.2796  139.4702  167.2022 C.ar    1  UNL1        0.0518
     10 BR        138.1689  138.8511  166.4066 Br      1  UNL1       -0.0474
     11 C         140.6684  139.5209  166.6379 C.ar    1  UNL1        0.0853
     12 N         141.2406  139.0452  165.3355 N.ar    1  UNL1       -0.3056
     13 C         140.6174  138.3580  164.1568 C.3     1  UNL1        0.1291
     14 C         141.4586  137.9959  162.9687 C.3     1  UNL1        0.1186
     15 N         142.9229  138.3210  162.9594 N.am    1  UNL1       -0.2674
     16 C         143.7640  137.9589  161.7713 C.3     1  UNL1        0.1228
     17 C         143.5008  138.6021  160.4421 C.ar    1  UNL1        0.0252
     18 C         142.8299  137.8216  159.3509 C.ar    1  UNL1       -0.0004
     19 C         142.5667  138.4648  158.0215 C.ar    1  UNL1       -0.0001
     20 C         142.9745  139.8885  157.7834 C.ar    1  UNL1        0.0023
     21 C         143.6454  140.6691  158.8747 C.ar    1  UNL1        0.0294
     22 C         143.9086  140.0259  160.2039 C.ar    1  UNL1        0.1377
     23 F         144.5794  140.8063  161.2951 F       1  UNL1       -0.2044
@<TRIPOS>BOND
     1     1     2    2
     2     2     3    1
     3     3     4   ar
     4     4     5   ar
     5     5     6   ar
     6     6     7   ar
     7     7     8   ar
     8     8     9   ar
     9     9    10    1
    10     9    11   ar
    11    11    12   ar
    12    12    13    1
    13    13    14    1
    14    14    15    1
    15    15    16    1
    16    16    17    1
    17    17    18   ar
    18    18    19   ar
    19    19    20   ar
    20    20    21   ar
    21    21    22   ar
    22    22    23    1
    23    15     2   am
    24    22    17   ar
    25    12     3   ar
    26    11     5   ar
@<TRIPOS>MOLECULE
*****
 23 26 0 0 0
SMALL
GASTEIGER

@<TRIPOS>ATOM
      1 O         138.6714  138.9838  163.8492 O.2     1  UNL1       -0.2666
      2 C         139.0477  140.4275  164.0047 C.2     1  UNL1        0.2837
      3 C         139.2418  141.2869  162.7907 C.ar    1  UNL1        0.1985
      4 N         139.1319  140.9919  161.3241 N.ar    1  UNL1       -0.2226
      5 C         139.4404  142.2533  160.5732 C.ar    1  UNL1        0.0993
      6 C         139.4865  142.5622  159.1061 C.ar    1  UNL1        0.0207
      7 C         139.8330  143.9456  158.6415 C.ar    1  UNL1        0.0021
      8 C         140.1335  145.0202  159.6440 C.ar    1  UNL1        0.0082
      9 C         140.0874  144.7113  161.1111 C.ar    1  UNL1        0.0518
     10 BR        140.3879  145.7859  162.1136 Br      1  UNL1       -0.0474
     11 C         139.7409  143.3278  161.5757 C.ar    1  UNL1        0.0853
     12 N         139.6181  142.7306  162.9462 N.ar    1  UNL1       -0.3056
     13 C         139.8004  143.3148  164.3156 C.3     1  UNL1        0.1291
     14 C         139.6064  142.4553  165.5296 C.3     1  UNL1        0.1186
     15 N         139.2300  141.0117  165.3741 N.am    1  UNL1       -0.2674
     16 C         139.0360  140.1522  166.5881 C.3     1  UNL1        0.1228
     17 C         140.1717  139.9369  167.5439 C.ar    1  UNL1        0.0252
     18 C         141.5468  139.6442  167.0210 C.ar    1  UNL1       -0.0004
     19 C         142.6827  139.4289  167.9768 C.ar    1  UNL1       -0.0001
     20 C         142.4434  139.5062  169.4556 C.ar    1  UNL1        0.0023
     21 C         141.0682  139.7990  169.9785 C.ar    1  UNL1        0.0294
     22 C         139.9324  140.0143  169.0227 C.ar    1  UNL1        0.1377
     23 F         138.5574  140.3070  169.5456 F       1  UNL1       -0.2044
@<TRIPOS>BOND
     1     1     2    2
     2     2     3    1
     3     3     4   ar
     4     4     5   ar
     5     5     6   ar
     6     6     7   ar
     7     7     8   ar
     8     8     9   ar
     9     9    10    1
    10     9    11   ar
    11    11    12   ar
    12    12    13    1
    13    13    14    1
    14    14    15    1
    15    15    16    1
    16    16    17    1
    17    17    18   ar
    18    18    19   ar
    19    19    20   ar
    20    20    21   ar
    21    21    22   ar
    22    22    23    1
    23    15     2   am
    24    22    17   ar
    25    12     3   ar
    26    11     5   ar
@<TRIPOS>MOLECULE
*****
 23 26 0 0 0
SMALL
GASTEIGER

@<TRIPOS>ATOM
      1 O         142.1165  138.7155  166.2066 O.2     1  UNL1       -0.2666
      2 C         140.8630  139.0566  165.4567 C.2     1  UNL1        0.2837
      3 C         140.8421  138.9842  163.9585 C.ar    1  UNL1        0.1985
      4 N         141.8946  138.6118  162.9568 N.ar    1  UNL1       -0.2226
      5 C         141.2917  138.7229  161.5878 C.ar    1  UNL1        0.0993
      6 C         141.8563  138.4794  160.2197 C.ar    1  UNL1        0.0207
      7 C         140.9957  138.6769  159.0072 C.ar    1  UNL1        0.0021
      8 C         139.5705  139.1179  159.1628 C.ar    1  UNL1        0.0082
      9 C         139.0058  139.3614  160.5309 C.ar    1  UNL1        0.0518
     10 BR        137.5806  139.8023  160.6866 Br      1  UNL1       -0.0474
     11 C         139.8664  139.1638  161.7435 C.ar    1  UNL1        0.0853
     12 N         139.5886  139.3253  163.2086 N.ar    1  UNL1       -0.3056
     13 C         138.3561  139.7389  163.9568 C.3     1  UNL1        0.1291
     14 C         138.3771  139.8114  165.4549 C.3     1  UNL1        0.1186
     15 N         139.6305  139.4702  166.2049 N.am    1  UNL1       -0.2674
     16 C         139.6515  139.5427  167.7030 C.3     1  UNL1        0.1228
     17 C         139.8764  140.8585  168.3871 C.ar    1  UNL1        0.0252
     18 C         140.5594  141.9765  167.6567 C.ar    1  UNL1       -0.0004
     19 C         140.7843  143.2924  168.3409 C.ar    1  UNL1       -0.0001
     20 C         140.3261  143.4902  169.7555 C.ar    1  UNL1        0.0023
     21 C         139.6429  142.3721  170.4858 C.ar    1  UNL1        0.0294
     22 C         139.4181  141.0563  169.8017 C.ar    1  UNL1        0.1377
     23 F         138.7351  139.9383  170.5320 F       1  UNL1       -0.2044
@<TRIPOS>BOND
     1     1     2    2
     2     2     3    1
     3     3     4   ar
     4     4     5   ar
     5     5     6   ar
     6     6     7   ar
     7     7     8   ar
     8     8     9   ar
     9     9    10    1
    10     9    11   ar
    11    11    12   ar
    12    12    13    1
    13    13    14    1
    14    14    15    1
    15    15    16    1
    16    16    17    1
    17    17    18   ar
    18    18    19   ar
    19    19    20   ar
    20    20    21   ar
    21    21    22   ar
    22    22    23    1
    23    15     2   am
    24    22    17   ar
    25    12     3   ar
    26    11     5   ar
