@<TRIPOS>MOLECULE
*****
 20 21 0 0 0
SMALL
GASTEIGER

@<TRIPOS>ATOM
      1 C         141.1803  144.3449  164.1630 C.ar    1  UNL1        0.0267
      2 C         142.1956  145.4177  163.9016 C.ar    1  UNL1        0.0001
      3 C         143.6593  145.1052  164.0008 C.ar    1  UNL1       -0.0001
      4 C         144.1078  143.7201  164.3615 C.ar    1  UNL1        0.0031
      5 C         143.0925  142.6473  164.6229 C.ar    1  UNL1        0.0372
      6 C         141.6288  142.9597  164.5237 C.ar    1  UNL1        0.1425
      7 C         138.9170  144.9073  165.3079 C.3     1  UNL1        0.0223
      8 C         139.7166  144.6573  164.0637 C.3     1  UNL1        0.0832
      9 N         139.0524  144.7197  162.7203 N.3     1  UNL1       -0.2678
     10 C         138.0917  143.6441  162.3079 C.3     1  UNL1        0.0899
     11 C         139.3490  145.8578  161.7891 C.3     1  UNL1        0.0899
     12 O         140.6135  141.8869  164.7851 O.3     1  UNL1       -0.4537
     13 C         140.2896  141.4882  166.1944 C.ar    1  UNL1        0.1462
     14 C         139.6211  140.1733  166.4670 C.ar    1  UNL1        0.0384
     15 C         139.2972  139.7746  167.8763 C.ar    1  UNL1        0.0154
     16 C         139.6418  140.6907  169.0130 C.ar    1  UNL1        0.0684
     17 CL        139.3179  140.2919  170.4222 Cl      1  UNL1       -0.0814
     18 C         140.3103  142.0055  168.7404 C.ar    1  UNL1        0.0712
     19 CL        140.6550  142.9215  169.8770 Cl      1  UNL1       -0.0813
     20 C         140.6342  142.4043  167.3310 C.ar    1  UNL1        0.0497
@<TRIPOS>BOND
     1     7     8    1
     2     8     1    1
     3     1     2   ar
     4     2     3   ar
     5     3     4   ar
     6     4     5   ar
     7     5     6   ar
     8     6    12    1
     9    12    13    1
    10    13    14   ar
    11    14    15   ar
    12    15    16   ar
    13    16    17    1
    14    16    18   ar
    15    18    19    1
    16    18    20   ar
    17     8     9    1
    18     9    10    1
    19     9    11    1
    20     6     1   ar
    21    20    13   ar
@<TRIPOS>MOLECULE
*****
 20 21 0 0 0
SMALL
GASTEIGER

@<TRIPOS>ATOM
      1 C         143.7159  140.1734  164.3326 C.ar    1  UNL1        0.0267
      2 C         145.1878  140.3421  164.0981 C.ar    1  UNL1        0.0001
      3 C         145.7465  141.6979  163.7825 C.ar    1  UNL1       -0.0001
      4 C         144.8332  142.8851  163.7013 C.ar    1  UNL1        0.0031
      5 C         143.3613  142.7164  163.9357 C.ar    1  UNL1        0.0372
      6 C         142.8027  141.3606  164.2513 C.ar    1  UNL1        0.1425
      7 C         143.3518  138.2253  166.0125 C.3     1  UNL1        0.0223
      8 C         143.1573  138.8176  164.6482 C.3     1  UNL1        0.0832
      9 N         142.4041  138.0541  163.5995 N.3     1  UNL1       -0.2678
     10 C         142.8541  138.1009  162.1694 C.3     1  UNL1        0.0899
     11 C         141.2008  137.2436  163.9810 C.3     1  UNL1        0.0899
     12 O         141.3307  141.1919  164.4857 O.3     1  UNL1       -0.4537
     13 C         140.7980  141.1169  165.8859 C.ar    1  UNL1        0.1462
     14 C         140.0117  139.9177  166.3261 C.ar    1  UNL1        0.0384
     15 C         139.4790  139.8427  167.7262 C.ar    1  UNL1        0.0154
     16 C         139.7325  140.9670  168.6863 C.ar    1  UNL1        0.0684
     17 CL        139.1997  140.8920  170.0865 Cl      1  UNL1       -0.0814
     18 C         140.5186  142.1662  168.2462 C.ar    1  UNL1        0.0712
     19 CL        140.7721  143.2905  169.2063 Cl      1  UNL1       -0.0813
     20 C         141.0514  142.2412  166.8460 C.ar    1  UNL1        0.0497
@<TRIPOS>BOND
     1     7     8    1
     2     8     1    1
     3     1     2   ar
     4     2     3   ar
     5     3     4   ar
     6     4     5   ar
     7     5     6   ar
     8     6    12    1
     9    12    13    1
    10    13    14   ar
    11    14    15   ar
    12    15    16   ar
    13    16    17    1
    14    16    18   ar
    15    18    19    1
    16    18    20   ar
    17     8     9    1
    18     9    10    1
    19     9    11    1
    20     6     1   ar
    21    20    13   ar
@<TRIPOS>MOLECULE
*****
 20 21 0 0 0
SMALL
GASTEIGER

@<TRIPOS>ATOM
      1 C         141.2309  138.7930  165.5308 C.ar    1  UNL1        0.0267
      2 C         140.3756  137.7176  164.9292 C.ar    1  UNL1        0.0001
      3 C         138.8932  137.7225  165.1581 C.ar    1  UNL1       -0.0001
      4 C         138.2661  138.8027  165.9886 C.ar    1  UNL1        0.0031
      5 C         139.1213  139.8781  166.5902 C.ar    1  UNL1        0.0372
      6 C         140.6038  139.8733  166.3613 C.ar    1  UNL1        0.1425
      7 C         143.6274  138.1735  166.3201 C.3     1  UNL1        0.0223
      8 C         142.7133  138.7882  165.3020 C.3     1  UNL1        0.0832
      9 N         143.2817  139.3981  164.0550 N.3     1  UNL1       -0.2678
     10 C         144.7674  139.4487  163.8548 C.3     1  UNL1        0.0899
     11 C         142.3643  139.9574  163.0082 C.3     1  UNL1        0.0899
     12 O         141.4590  140.9488  166.9630 O.3     1  UNL1       -0.4537
     13 C         142.0273  142.0299  166.0924 C.ar    1  UNL1        0.1462
     14 C         143.5043  142.2921  166.0897 C.ar    1  UNL1        0.0384
     15 C         144.0726  143.3733  165.2191 C.ar    1  UNL1        0.0154
     16 C         143.1640  144.1924  164.3511 C.ar    1  UNL1        0.0684
     17 CL        143.7322  145.2736  163.4805 Cl      1  UNL1       -0.0814
     18 C         141.6871  143.9303  164.3537 C.ar    1  UNL1        0.0712
     19 CL        140.7785  144.7494  163.4856 Cl      1  UNL1       -0.0813
     20 C         141.1187  142.8491  165.2243 C.ar    1  UNL1        0.0497
@<TRIPOS>BOND
     1     7     8    1
     2     8     1    1
     3     1     2   ar
     4     2     3   ar
     5     3     4   ar
     6     4     5   ar
     7     5     6   ar
     8     6    12    1
     9    12    13    1
    10    13    14   ar
    11    14    15   ar
    12    15    16   ar
    13    16    17    1
    14    16    18   ar
    15    18    19    1
    16    18    20   ar
    17     8     9    1
    18     9    10    1
    19     9    11    1
    20     6     1   ar
    21    20    13   ar
@<TRIPOS>MOLECULE
*****
 20 21 0 0 0
SMALL
GASTEIGER

@<TRIPOS>ATOM
      1 C         139.7956  140.7225  167.7248 C.ar    1  UNL1        0.0267
      2 C         138.8896  139.5512  167.9636 C.ar    1  UNL1        0.0001
      3 C         138.0685  138.9963  166.8376 C.ar    1  UNL1       -0.0001
      4 C         138.1535  139.6126  165.4728 C.ar    1  UNL1        0.0031
      5 C         139.0595  140.7839  165.2340 C.ar    1  UNL1        0.0372
      6 C         139.8806  141.3389  166.3600 C.ar    1  UNL1        0.1425
      7 C         139.9776  142.1617  169.8801 C.3     1  UNL1        0.0223
      8 C         140.6167  141.2775  168.8508 C.3     1  UNL1        0.0832
      9 N         142.0768  140.9481  168.9475 N.3     1  UNL1       -0.2678
     10 C         143.0883  142.0500  169.0608 C.3     1  UNL1        0.0899
     11 C         142.5256  139.5168  168.9309 C.3     1  UNL1        0.0899
     12 O         140.7867  142.5102  166.1211 O.3     1  UNL1       -0.4537
     13 C         142.1109  142.3087  165.4461 C.ar    1  UNL1        0.1462
     14 C         142.8220  143.4749  164.8260 C.ar    1  UNL1        0.0384
     15 C         144.1462  143.2733  164.1511 C.ar    1  UNL1        0.0154
     16 C         144.7596  141.9056  164.0961 C.ar    1  UNL1        0.0684
     17 CL        146.0838  141.7040  163.4212 Cl      1  UNL1       -0.0814
     18 C         144.0486  140.7394  164.7162 C.ar    1  UNL1        0.0712
     19 CL        144.6620  139.3716  164.6612 Cl      1  UNL1       -0.0813
     20 C         142.7243  140.9409  165.3912 C.ar    1  UNL1        0.0497
@<TRIPOS>BOND
     1     7     8    1
     2     8     1    1
     3     1     2   ar
     4     2     3   ar
     5     3     4   ar
     6     4     5   ar
     7     5     6   ar
     8     6    12    1
     9    12    13    1
    10    13    14   ar
    11    14    15   ar
    12    15    16   ar
    13    16    17    1
    14    16    18   ar
    15    18    19    1
    16    18    20   ar
    17     8     9    1
    18     9    10    1
    19     9    11    1
    20     6     1   ar
    21    20    13   ar
@<TRIPOS>MOLECULE
*****
 20 21 0 0 0
SMALL
GASTEIGER

@<TRIPOS>ATOM
      1 C         138.8939  141.7573  164.6914 C.ar    1  UNL1        0.0267
      2 C         137.6792  142.6106  164.4767 C.ar    1  UNL1        0.0001
      3 C         137.8071  144.1049  164.4522 C.ar    1  UNL1       -0.0001
      4 C         139.1498  144.7460  164.6424 C.ar    1  UNL1        0.0031
      5 C         140.3646  143.8926  164.8571 C.ar    1  UNL1        0.0372
      6 C         140.2366  142.3983  164.8816 C.ar    1  UNL1        0.1425
      7 C         138.3725  139.5646  165.9838 C.3     1  UNL1        0.0223
      8 C         138.7660  140.2630  164.7159 C.3     1  UNL1        0.0832
      9 N         139.0316  139.4670  163.4726 N.3     1  UNL1       -0.2678
     10 C         140.3008  138.6780  163.3440 C.3     1  UNL1        0.0899
     11 C         138.0279  139.4600  162.3579 C.3     1  UNL1        0.0899
     12 O         141.4515  141.5450  165.0964 O.3     1  UNL1       -0.4537
     13 C         141.8672  141.1686  166.4876 C.ar    1  UNL1        0.1462
     14 C         142.1228  139.7309  166.8309 C.ar    1  UNL1        0.0384
     15 C         142.5386  139.3545  168.2220 C.ar    1  UNL1        0.0154
     16 C         142.6988  140.4157  169.2700 C.ar    1  UNL1        0.0684
     17 CL        143.1146  140.0393  170.6611 Cl      1  UNL1       -0.0814
     18 C         142.4433  141.8533  168.9267 C.ar    1  UNL1        0.0712
     19 CL        142.6035  142.9145  169.9746 Cl      1  UNL1       -0.0813
     20 C         142.0275  142.2298  167.5355 C.ar    1  UNL1        0.0497
@<TRIPOS>BOND
     1     7     8    1
     2     8     1    1
     3     1     2   ar
     4     2     3   ar
     5     3     4   ar
     6     4     5   ar
     7     5     6   ar
     8     6    12    1
     9    12    13    1
    10    13    14   ar
    11    14    15   ar
    12    15    16   ar
    13    16    17    1
    14    16    18   ar
    15    18    19    1
    16    18    20   ar
    17     8     9    1
    18     9    10    1
    19     9    11    1
    20     6     1   ar
    21    20    13   ar
@<TRIPOS>MOLECULE
*****
 20 21 0 0 0
SMALL
GASTEIGER

@<TRIPOS>ATOM
      1 C         140.4078  140.4499  167.3961 C.ar    1  UNL1        0.0267
      2 C         139.5969  140.0600  168.5962 C.ar    1  UNL1        0.0001
      3 C         139.4236  141.0261  169.7305 C.ar    1  UNL1       -0.0001
      4 C         140.0613  142.3821  169.6647 C.ar    1  UNL1        0.0031
      5 C         140.8723  142.7721  168.4646 C.ar    1  UNL1        0.0372
      6 C         141.0455  141.8060  167.3303 C.ar    1  UNL1        0.1425
      7 C         141.9364  138.9159  165.9607 C.3     1  UNL1        0.0223
      8 C         140.5811  139.4838  166.2618 C.3     1  UNL1        0.0832
      9 N         139.3991  139.0856  165.4286 N.3     1  UNL1       -0.2678
     10 C         138.3133  140.0805  165.1432 C.3     1  UNL1        0.0899
     11 C         139.3028  137.6926  164.8807 C.3     1  UNL1        0.0899
     12 O         141.8565  142.1961  166.1302 O.3     1  UNL1       -0.4537
     13 C         141.2956  143.1597  165.1269 C.ar    1  UNL1        0.1462
     14 C         142.2177  144.0338  164.3295 C.ar    1  UNL1        0.0384
     15 C         141.6568  144.9975  163.3262 C.ar    1  UNL1        0.0154
     16 C         140.1737  145.0872  163.1203 C.ar    1  UNL1        0.0684
     17 CL        139.6128  146.0508  162.1170 Cl      1  UNL1       -0.0814
     18 C         139.2516  144.2132  163.9176 C.ar    1  UNL1        0.0712
     19 CL        137.7685  144.3029  163.7116 Cl      1  UNL1       -0.0813
     20 C         139.8125  143.2494  164.9209 C.ar    1  UNL1        0.0497
@<TRIPOS>BOND
     1     7     8    1
     2     8     1    1
     3     1     2   ar
     4     2     3   ar
     5     3     4   ar
     6     4     5   ar
     7     5     6   ar
     8     6    12    1
     9    12    13    1
    10    13    14   ar
    11    14    15   ar
    12    15    16   ar
    13    16    17    1
    14    16    18   ar
    15    18    19    1
    16    18    20   ar
    17     8     9    1
    18     9    10    1
    19     9    11    1
    20     6     1   ar
    21    20    13   ar
@<TRIPOS>MOLECULE
*****
 20 21 0 0 0
SMALL
GASTEIGER

@<TRIPOS>ATOM
      1 C         141.2286  139.5641  165.5773 C.ar    1  UNL1        0.0267
      2 C         141.4361  138.1565  165.1023 C.ar    1  UNL1        0.0001
      3 C         140.2618  137.3312  164.6667 C.ar    1  UNL1       -0.0001
      4 C         138.8800  137.9133  164.7061 C.ar    1  UNL1        0.0031
      5 C         138.6725  139.3209  165.1812 C.ar    1  UNL1        0.0372
      6 C         139.8468  140.1462  165.6168 C.ar    1  UNL1        0.1425
      7 C         143.3885  140.8863  164.9972 C.3     1  UNL1        0.0223
      8 C         142.4029  140.3895  166.0129 C.3     1  UNL1        0.0832
      9 N         142.5916  140.7181  167.4643 N.3     1  UNL1       -0.2678
     10 C         142.4991  139.6340  168.4969 C.3     1  UNL1        0.0899
     11 C         142.8727  142.1308  167.8830 C.3     1  UNL1        0.0899
     12 O         139.6392  141.5539  166.0918 O.3     1  UNL1       -0.4537
     13 C         139.6076  142.6819  165.1037 C.ar    1  UNL1        0.1462
     14 C         138.3579  142.9591  164.3216 C.ar    1  UNL1        0.0384
     15 C         138.3263  144.0872  163.3335 C.ar    1  UNL1        0.0154
     16 C         139.5442  144.9381  163.1274 C.ar    1  UNL1        0.0684
     17 CL        139.5126  146.0662  162.1393 Cl      1  UNL1       -0.0814
     18 C         140.7939  144.6610  163.9095 C.ar    1  UNL1        0.0712
     19 CL        142.0118  145.5119  163.7034 Cl      1  UNL1       -0.0813
     20 C         140.8255  143.5328  164.8977 C.ar    1  UNL1        0.0497
@<TRIPOS>BOND
     1     7     8    1
     2     8     1    1
     3     1     2   ar
     4     2     3   ar
     5     3     4   ar
     6     4     5   ar
     7     5     6   ar
     8     6    12    1
     9    12    13    1
    10    13    14   ar
    11    14    15   ar
    12    15    16   ar
    13    16    17    1
    14    16    18   ar
    15    18    19    1
    16    18    20   ar
    17     8     9    1
    18     9    10    1
    19     9    11    1
    20     6     1   ar
    21    20    13   ar
@<TRIPOS>MOLECULE
*****
 20 21 0 0 0
SMALL
GASTEIGER

@<TRIPOS>ATOM
      1 C         140.3369  139.8978  167.8513 C.ar    1  UNL1        0.0267
      2 C         138.8747  139.6323  168.0546 C.ar    1  UNL1        0.0001
      3 C         138.0510  139.0722  166.9330 C.ar    1  UNL1       -0.0001
      4 C         138.6896  138.7777  165.6081 C.ar    1  UNL1        0.0031
      5 C         140.1518  139.0432  165.4048 C.ar    1  UNL1        0.0372
      6 C         140.9754  139.6033  166.5263 C.ar    1  UNL1        0.1425
      7 C         141.5688  139.5768  170.1160 C.3     1  UNL1        0.0223
      8 C         141.1605  140.4578  168.9728 C.3     1  UNL1        0.0832
      9 N         141.5759  141.8990  168.9512 N.3     1  UNL1       -0.2678
     10 C         140.5374  142.9777  168.8628 C.3     1  UNL1        0.0899
     11 C         143.0300  142.2615  169.0180 C.3     1  UNL1        0.0899
     12 O         142.4377  139.8688  166.3229 O.3     1  UNL1       -0.4537
     13 C         142.8792  141.0105  165.4561 C.ar    1  UNL1        0.1462
     14 C         142.0514  142.2593  165.3815 C.ar    1  UNL1        0.0384
     15 C         142.4929  143.4011  164.5147 C.ar    1  UNL1        0.0154
     16 C         143.7621  143.2942  163.7224 C.ar    1  UNL1        0.0684
     17 CL        144.2036  144.4359  162.8556 Cl      1  UNL1       -0.0814
     18 C         144.5899  142.0455  163.7970 C.ar    1  UNL1        0.0712
     19 CL        145.8591  141.9386  163.0048 Cl      1  UNL1       -0.0813
     20 C         144.1484  140.9036  164.6639 C.ar    1  UNL1        0.0497
@<TRIPOS>BOND
     1     7     8    1
     2     8     1    1
     3     1     2   ar
     4     2     3   ar
     5     3     4   ar
     6     4     5   ar
     7     5     6   ar
     8     6    12    1
     9    12    13    1
    10    13    14   ar
    11    14    15   ar
    12    15    16   ar
    13    16    17    1
    14    16    18   ar
    15    18    19    1
    16    18    20   ar
    17     8     9    1
    18     9    10    1
    19     9    11    1
    20     6     1   ar
    21    20    13   ar
@<TRIPOS>MOLECULE
*****
 20 21 0 0 0
SMALL
GASTEIGER

@<TRIPOS>ATOM
      1 C         140.0327  139.9174  167.3634 C.ar    1  UNL1        0.0267
      2 C         138.6225  139.4064  167.3468 C.ar    1  UNL1        0.0001
      3 C         138.1260  138.6132  166.1745 C.ar    1  UNL1       -0.0001
      4 C         139.0396  138.3309  165.0189 C.ar    1  UNL1        0.0031
      5 C         140.4497  138.8419  165.0354 C.ar    1  UNL1        0.0372
      6 C         140.9463  139.6351  166.2077 C.ar    1  UNL1        0.1425
      7 C         140.5148  142.2097  168.4870 C.3     1  UNL1        0.0223
      8 C         140.5293  140.7106  168.5356 C.3     1  UNL1        0.0832
      9 N         141.0403  140.0048  169.7565 N.3     1  UNL1       -0.2678
     10 C         140.2146  139.9787  171.0085 C.3     1  UNL1        0.0899
     11 C         142.3771  139.3250  169.7254 C.3     1  UNL1        0.0899
     12 O         142.3565  140.1461  166.2242 O.3     1  UNL1       -0.4537
     13 C         142.7093  141.3984  165.4777 C.ar    1  UNL1        0.1462
     14 C         144.1203  141.6286  165.0236 C.ar    1  UNL1        0.0384
     15 C         144.4731  142.8808  164.2770 C.ar    1  UNL1        0.0154
     16 C         143.4149  143.9029  163.9845 C.ar    1  UNL1        0.0684
     17 CL        143.7676  145.1552  163.2380 Cl      1  UNL1       -0.0814
     18 C         142.0039  143.6728  164.4386 C.ar    1  UNL1        0.0712
     19 CL        140.9458  144.6949  164.1461 Cl      1  UNL1       -0.0813
     20 C         141.6511  142.4205  165.1852 C.ar    1  UNL1        0.0497
@<TRIPOS>BOND
     1     7     8    1
     2     8     1    1
     3     1     2   ar
     4     2     3   ar
     5     3     4   ar
     6     4     5   ar
     7     5     6   ar
     8     6    12    1
     9    12    13    1
    10    13    14   ar
    11    14    15   ar
    12    15    16   ar
    13    16    17    1
    14    16    18   ar
    15    18    19    1
    16    18    20   ar
    17     8     9    1
    18     9    10    1
    19     9    11    1
    20     6     1   ar
    21    20    13   ar
