@<TRIPOS>MOLECULE
*****
 25 28 0 0 0
SMALL
GASTEIGER

@<TRIPOS>ATOM
      1 C         139.6094  146.2673  161.7306 C.3     1  UNL1        0.0339
      2 C         139.5234  144.8935  162.3266 C.3     1  UNL1        0.1351
      3 C         140.2845  144.5698  163.5781 C.3     1  UNL1        0.1219
      4 N         140.1985  143.1960  164.1741 N.pl3   1  UNL1       -0.2861
      5 C         139.3514  142.1459  163.5187 C.3     1  UNL1        0.1263
      6 C         138.5903  142.4694  162.2673 C.3     1  UNL1        0.1663
      7 O         138.6763  143.8433  161.6712 O.3     1  UNL1       -0.3524
      8 C         140.9596  142.8724  165.4255 C.ar    1  UNL1        0.1336
      9 C         142.4176  142.5286  165.3489 C.ar    1  UNL1        0.0375
     10 C         143.1786  142.2050  166.6003 C.ar    1  UNL1        0.0427
     11 C         142.4816  142.2251  167.9284 C.ar    1  UNL1        0.1709
     12 C         141.0235  142.5689  168.0050 C.ar    1  UNL1        0.1699
     13 N         140.2625  142.8925  166.7536 N.ar    1  UNL1       -0.2127
     14 N         140.3265  142.5891  169.3331 N.am    1  UNL1       -0.2638
     15 C         141.0875  142.2654  170.5845 C.2     1  UNL1        0.2718
     16 O         140.3905  142.2856  171.9126 O.2     1  UNL1       -0.2707
     17 C         142.5456  141.9216  170.5079 C.3     1  UNL1        0.2898
     18 O         143.2427  141.9015  169.1798 O.3     1  UNL1       -0.4628
     19 H         139.3696  142.8147  169.3834 H       1  UNL1        0.1565
     20 C         139.2654  140.7720  164.1148 C.ar    1  UNL1       -0.0019
     21 C         140.2076  139.6970  163.6604 C.ar    1  UNL1       -0.0026
     22 C         140.1216  138.3232  164.2564 C.ar    1  UNL1       -0.0003
     23 C         139.0934  138.0244  165.3068 C.ar    1  UNL1       -0.0000
     24 C         138.1512  139.0995  165.7612 C.ar    1  UNL1       -0.0003
     25 C         138.2371  140.4732  165.1652 C.ar    1  UNL1       -0.0026
@<TRIPOS>BOND
     1     2     1    1
     2     2     3    1
     3     3     4    1
     4     4     8    1
     5     8     9   ar
     6     9    10   ar
     7    10    11   ar
     8    11    12   ar
     9    12    13   ar
    10    12    14    1
    11    14    15   am
    12    15    16    2
    13    15    17    1
    14    17    18    1
    15     4     5    1
    16     5    20    1
    17    20    21   ar
    18    21    22   ar
    19    22    23   ar
    20    23    24   ar
    21    24    25   ar
    22     5     6    1
    23     6     7    1
    24     7     2    1
    25    13     8   ar
    26    25    20   ar
    27    18    11    1
    28    14    19    1
@<TRIPOS>MOLECULE
*****
 25 28 0 0 0
SMALL
GASTEIGER

@<TRIPOS>ATOM
      1 C         140.1818  140.2140  171.0357 C.3     1  UNL1        0.0339
      2 C         139.8734  139.9580  169.5902 C.3     1  UNL1        0.1351
      3 C         140.9429  140.1316  168.5529 C.3     1  UNL1        0.1219
      4 N         140.6345  139.8756  167.1075 N.pl3   1  UNL1       -0.2861
      5 C         139.2564  139.4461  166.6993 C.3     1  UNL1        0.1263
      6 C         138.1869  139.2726  167.7365 C.3     1  UNL1        0.1663
      7 O         138.4953  139.5285  169.1821 O.3     1  UNL1       -0.3524
      8 C         141.7040  140.0492  166.0701 C.ar    1  UNL1        0.1336
      9 C         142.5281  138.8726  165.6384 C.ar    1  UNL1        0.0375
     10 C         143.5976  139.0461  164.6012 C.ar    1  UNL1        0.0427
     11 C         143.8430  140.3963  163.9956 C.ar    1  UNL1        0.1709
     12 C         143.0189  141.5730  164.4273 C.ar    1  UNL1        0.1699
     13 N         141.9494  141.3994  165.4646 N.ar    1  UNL1       -0.2127
     14 N         143.2644  142.9232  163.8217 N.am    1  UNL1       -0.2638
     15 C         144.3339  143.0967  162.7844 C.2     1  UNL1        0.2718
     16 O         144.5793  144.4469  162.1788 O.2     1  UNL1       -0.2707
     17 C         145.1580  141.9201  162.3527 C.3     1  UNL1        0.2898
     18 O         144.9126  140.5699  162.9582 O.3     1  UNL1       -0.4628
     19 H         142.7235  143.6954  164.1051 H       1  UNL1        0.1565
     20 C         138.9480  139.1902  165.2538 C.ar    1  UNL1       -0.0019
     21 C         138.3773  140.2861  164.4032 C.ar    1  UNL1       -0.0026
     22 C         138.0689  140.0302  162.9578 C.ar    1  UNL1       -0.0003
     23 C         138.3311  138.6785  162.3629 C.ar    1  UNL1       -0.0000
     24 C         138.9017  137.5826  163.2134 C.ar    1  UNL1       -0.0003
     25 C         139.2102  137.8385  164.6589 C.ar    1  UNL1       -0.0026
@<TRIPOS>BOND
     1     2     1    1
     2     2     3    1
     3     3     4    1
     4     4     8    1
     5     8     9   ar
     6     9    10   ar
     7    10    11   ar
     8    11    12   ar
     9    12    13   ar
    10    12    14    1
    11    14    15   am
    12    15    16    2
    13    15    17    1
    14    17    18    1
    15     4     5    1
    16     5    20    1
    17    20    21   ar
    18    21    22   ar
    19    22    23   ar
    20    23    24   ar
    21    24    25   ar
    22     5     6    1
    23     6     7    1
    24     7     2    1
    25    13     8   ar
    26    25    20   ar
    27    18    11    1
    28    14    19    1
@<TRIPOS>MOLECULE
*****
 25 28 0 0 0
SMALL
GASTEIGER

@<TRIPOS>ATOM
      1 C         144.4314  142.5317  170.2457 C.3     1  UNL1        0.0339
      2 C         143.4768  141.8274  169.3277 C.3     1  UNL1        0.1351
      3 C         142.8634  142.5648  168.1743 C.3     1  UNL1        0.1219
      4 N         141.9089  141.8606  167.2563 N.pl3   1  UNL1       -0.2861
      5 C         141.5677  140.4190  167.4915 C.3     1  UNL1        0.1263
      6 C         142.1810  139.6816  168.6447 C.3     1  UNL1        0.1663
      7 O         143.1356  140.3858  169.5629 O.3     1  UNL1       -0.3524
      8 C         141.2955  142.5980  166.1029 C.ar    1  UNL1        0.1336
      9 C         139.9292  143.2015  166.2400 C.ar    1  UNL1        0.0375
     10 C         139.3159  143.9389  165.0867 C.ar    1  UNL1        0.0427
     11 C         140.0689  144.0726  163.7963 C.ar    1  UNL1        0.1709
     12 C         141.4352  143.4691  163.6593 C.ar    1  UNL1        0.1699
     13 N         142.0485  142.7317  164.8125 N.ar    1  UNL1       -0.2127
     14 N         142.1882  143.6028  162.3689 N.am    1  UNL1       -0.2638
     15 C         141.5749  144.3402  161.2156 C.2     1  UNL1        0.2718
     16 O         142.3279  144.4739  159.9252 O.2     1  UNL1       -0.2707
     17 C         140.2085  144.9438  161.3526 C.3     1  UNL1        0.2898
     18 O         139.4555  144.8100  162.6430 O.3     1  UNL1       -0.4628
     19 H         143.0850  143.2067  162.2789 H       1  UNL1        0.1565
     20 C         140.6131  139.7147  166.5733 C.ar    1  UNL1       -0.0019
     21 C         139.1461  139.6982  166.8860 C.ar    1  UNL1       -0.0026
     22 C         138.1916  138.9940  165.9679 C.ar    1  UNL1       -0.0003
     23 C         138.7039  138.3064  164.7372 C.ar    1  UNL1       -0.0000
     24 C         140.1709  138.3229  164.4246 C.ar    1  UNL1       -0.0003
     25 C         141.1255  139.0271  165.3427 C.ar    1  UNL1       -0.0026
@<TRIPOS>BOND
     1     2     1    1
     2     2     3    1
     3     3     4    1
     4     4     8    1
     5     8     9   ar
     6     9    10   ar
     7    10    11   ar
     8    11    12   ar
     9    12    13   ar
    10    12    14    1
    11    14    15   am
    12    15    16    2
    13    15    17    1
    14    17    18    1
    15     4     5    1
    16     5    20    1
    17    20    21   ar
    18    21    22   ar
    19    22    23   ar
    20    23    24   ar
    21    24    25   ar
    22     5     6    1
    23     6     7    1
    24     7     2    1
    25    13     8   ar
    26    25    20   ar
    27    18    11    1
    28    14    19    1
@<TRIPOS>MOLECULE
*****
 25 28 0 0 0
SMALL
GASTEIGER

@<TRIPOS>ATOM
      1 C         143.7763  138.0152  161.5452 C.3     1  UNL1        0.0339
      2 C         142.8746  139.0852  162.0856 C.3     1  UNL1        0.1351
      3 C         142.9000  139.4195  163.5477 C.3     1  UNL1        0.1219
      4 N         141.9984  140.4895  164.0881 N.pl3   1  UNL1       -0.2861
      5 C         141.0713  141.2252  163.1665 C.3     1  UNL1        0.1263
      6 C         141.0460  140.8909  161.7045 C.3     1  UNL1        0.1663
      7 O         141.9476  139.8209  161.1640 O.3     1  UNL1       -0.3524
      8 C         142.0237  140.8238  165.5502 C.ar    1  UNL1        0.1336
      9 C         142.9791  141.8585  166.0665 C.ar    1  UNL1        0.0375
     10 C         143.0045  142.1928  167.5286 C.ar    1  UNL1        0.0427
     11 C         142.0743  141.4924  168.4743 C.ar    1  UNL1        0.1709
     12 C         141.1189  140.4578  167.9580 C.ar    1  UNL1        0.1699
     13 N         141.0936  140.1235  166.4959 N.ar    1  UNL1       -0.2127
     14 N         140.1887  139.7575  168.9037 N.am    1  UNL1       -0.2638
     15 C         140.2140  140.0918  170.3657 C.2     1  UNL1        0.2718
     16 O         139.2839  139.3914  171.3114 O.2     1  UNL1       -0.2707
     17 C         141.1695  141.1264  170.8821 C.3     1  UNL1        0.2898
     18 O         142.0997  141.8268  169.9364 O.3     1  UNL1       -0.4628
     19 H         139.5616  139.0784  168.5648 H       1  UNL1        0.1565
     20 C         140.1697  142.2953  163.7070 C.ar    1  UNL1       -0.0019
     21 C         138.7714  141.9548  164.1300 C.ar    1  UNL1       -0.0026
     22 C         137.8698  143.0247  164.6705 C.ar    1  UNL1       -0.0003
     23 C         138.3664  144.4352  164.7879 C.ar    1  UNL1       -0.0000
     24 C         139.7646  144.7757  164.3650 C.ar    1  UNL1       -0.0003
     25 C         140.6663  143.7058  163.8245 C.ar    1  UNL1       -0.0026
@<TRIPOS>BOND
     1     2     1    1
     2     2     3    1
     3     3     4    1
     4     4     8    1
     5     8     9   ar
     6     9    10   ar
     7    10    11   ar
     8    11    12   ar
     9    12    13   ar
    10    12    14    1
    11    14    15   am
    12    15    16    2
    13    15    17    1
    14    17    18    1
    15     4     5    1
    16     5    20    1
    17    20    21   ar
    18    21    22   ar
    19    22    23   ar
    20    23    24   ar
    21    24    25   ar
    22     5     6    1
    23     6     7    1
    24     7     2    1
    25    13     8   ar
    26    25    20   ar
    27    18    11    1
    28    14    19    1
@<TRIPOS>MOLECULE
*****
 25 28 0 0 0
SMALL
GASTEIGER

@<TRIPOS>ATOM
      1 C         143.8645  142.1273  169.7906 C.3     1  UNL1        0.0339
      2 C         142.8192  142.3056  168.7297 C.3     1  UNL1        0.1351
      3 C         143.2268  142.4744  167.2960 C.3     1  UNL1        0.1219
      4 N         142.1816  142.6527  166.2351 N.pl3   1  UNL1       -0.2861
      5 C         140.7286  142.6623  166.6078 C.3     1  UNL1        0.1263
      6 C         140.3210  142.4936  168.0414 C.3     1  UNL1        0.1663
      7 O         141.3663  142.3152  169.1024 O.3     1  UNL1       -0.3524
      8 C         142.5892  142.8215  164.8014 C.ar    1  UNL1        0.1336
      9 C         142.7810  144.1963  164.2330 C.ar    1  UNL1        0.0375
     10 C         143.1886  144.3650  162.7994 C.ar    1  UNL1        0.0427
     11 C         143.4044  143.1588  161.9341 C.ar    1  UNL1        0.1709
     12 C         143.2126  141.7840  162.5025 C.ar    1  UNL1        0.1699
     13 N         142.8050  141.6153  163.9361 N.ar    1  UNL1       -0.2127
     14 N         143.4285  140.5779  161.6372 N.am    1  UNL1       -0.2638
     15 C         143.8361  140.7466  160.2036 C.2     1  UNL1        0.2718
     16 O         144.0519  139.5405  159.3383 O.2     1  UNL1       -0.2707
     17 C         144.0278  142.1215  159.6351 C.3     1  UNL1        0.2898
     18 O         143.8120  143.3276  160.5004 O.3     1  UNL1       -0.4628
     19 H         143.3026  139.6756  162.0103 H       1  UNL1        0.1565
     20 C         139.6833  142.8406  165.5468 C.ar    1  UNL1       -0.0019
     21 C         139.2249  144.2182  165.1697 C.ar    1  UNL1       -0.0026
     22 C         138.1797  144.3965  164.1088 C.ar    1  UNL1       -0.0003
     23 C         137.5929  143.1974  163.4250 C.ar    1  UNL1       -0.0000
     24 C         138.0513  141.8198  163.8021 C.ar    1  UNL1       -0.0003
     25 C         139.0966  141.6415  164.8630 C.ar    1  UNL1       -0.0026
@<TRIPOS>BOND
     1     2     1    1
     2     2     3    1
     3     3     4    1
     4     4     8    1
     5     8     9   ar
     6     9    10   ar
     7    10    11   ar
     8    11    12   ar
     9    12    13   ar
    10    12    14    1
    11    14    15   am
    12    15    16    2
    13    15    17    1
    14    17    18    1
    15     4     5    1
    16     5    20    1
    17    20    21   ar
    18    21    22   ar
    19    22    23   ar
    20    23    24   ar
    21    24    25   ar
    22     5     6    1
    23     6     7    1
    24     7     2    1
    25    13     8   ar
    26    25    20   ar
    27    18    11    1
    28    14    19    1
@<TRIPOS>MOLECULE
*****
 25 28 0 0 0
SMALL
GASTEIGER

@<TRIPOS>ATOM
      1 C         142.6659  138.6285  170.1803 C.3     1  UNL1        0.0339
      2 C         141.9295  139.4592  169.1715 C.3     1  UNL1        0.1351
      3 C         142.6640  140.0440  168.0016 C.3     1  UNL1        0.1219
      4 N         141.9276  140.8747  166.9929 N.pl3   1  UNL1       -0.2861
      5 C         140.4566  141.1205  167.1539 C.3     1  UNL1        0.1263
      6 C         139.7221  140.5357  168.3237 C.3     1  UNL1        0.1663
      7 O         140.4586  139.7050  169.3325 O.3     1  UNL1       -0.3524
      8 C         142.6621  141.4595  165.8230 C.ar    1  UNL1        0.1336
      9 C         143.4991  142.6912  166.0027 C.ar    1  UNL1        0.0375
     10 C         144.2336  143.2760  164.8328 C.ar    1  UNL1        0.0427
     11 C         144.1310  142.6292  163.4834 C.ar    1  UNL1        0.1709
     12 C         143.2939  141.3975  163.3037 C.ar    1  UNL1        0.1699
     13 N         142.5594  140.8127  164.4735 N.ar    1  UNL1       -0.2127
     14 N         143.1912  140.7507  161.9542 N.am    1  UNL1       -0.2638
     15 C         143.9257  141.3355  160.7844 C.2     1  UNL1        0.2718
     16 O         143.8230  140.6887  159.4349 O.2     1  UNL1       -0.2707
     17 C         144.7628  142.5672  160.9640 C.3     1  UNL1        0.2898
     18 O         144.8655  143.2140  162.3135 O.3     1  UNL1       -0.4628
     19 H         142.6418  139.9423  161.8363 H       1  UNL1        0.1565
     20 C         139.7202  141.9512  166.1450 C.ar    1  UNL1       -0.0019
     21 C         138.8768  141.2861  165.0980 C.ar    1  UNL1       -0.0026
     22 C         138.1403  142.1167  164.0892 C.ar    1  UNL1       -0.0003
     23 C         138.2474  143.6124  164.1274 C.ar    1  UNL1       -0.0000
     24 C         139.0908  144.2774  165.1745 C.ar    1  UNL1       -0.0003
     25 C         139.8272  143.4468  166.1833 C.ar    1  UNL1       -0.0026
@<TRIPOS>BOND
     1     2     1    1
     2     2     3    1
     3     3     4    1
     4     4     8    1
     5     8     9   ar
     6     9    10   ar
     7    10    11   ar
     8    11    12   ar
     9    12    13   ar
    10    12    14    1
    11    14    15   am
    12    15    16    2
    13    15    17    1
    14    17    18    1
    15     4     5    1
    16     5    20    1
    17    20    21   ar
    18    21    22   ar
    19    22    23   ar
    20    23    24   ar
    21    24    25   ar
    22     5     6    1
    23     6     7    1
    24     7     2    1
    25    13     8   ar
    26    25    20   ar
    27    18    11    1
    28    14    19    1
@<TRIPOS>MOLECULE
*****
 25 28 0 0 0
SMALL
GASTEIGER

@<TRIPOS>ATOM
      1 C         140.4696  144.0018  170.0205 C.3     1  UNL1        0.0339
      2 C         140.4183  142.8933  169.0112 C.3     1  UNL1        0.1351
      3 C         140.0948  143.1979  167.5785 C.3     1  UNL1        0.1219
      4 N         140.0434  142.0895  166.5692 N.pl3   1  UNL1       -0.2861
      5 C         140.3156  140.6765  166.9926 C.3     1  UNL1        0.1263
      6 C         140.6390  140.3718  168.4252 C.3     1  UNL1        0.1663
      7 O         140.6904  141.4803  169.4346 O.3     1  UNL1       -0.3524
      8 C         139.7200  142.3941  165.1365 C.ar    1  UNL1        0.1336
      9 C         138.3203  142.2126  164.6287 C.ar    1  UNL1        0.0375
     10 C         137.9969  142.5172  163.1960 C.ar    1  UNL1        0.0427
     11 C         139.0731  143.0033  162.2711 C.ar    1  UNL1        0.1709
     12 C         140.4728  143.1847  162.7789 C.ar    1  UNL1        0.1699
     13 N         140.7962  142.8802  164.2116 N.ar    1  UNL1       -0.2127
     14 N         141.5491  143.6708  161.8541 N.am    1  UNL1       -0.2638
     15 C         141.2257  143.9754  160.4214 C.2     1  UNL1        0.2718
     16 O         142.3020  144.4614  159.4965 O.2     1  UNL1       -0.2707
     17 C         139.8259  143.7939  159.9135 C.3     1  UNL1        0.2898
     18 O         138.7497  143.3079  160.8384 O.3     1  UNL1       -0.4628
     19 H         142.4678  143.7899  162.1874 H       1  UNL1        0.1565
     20 C         140.2642  139.5680  165.9832 C.ar    1  UNL1       -0.0019
     21 C         141.4891  139.2172  165.1916 C.ar    1  UNL1       -0.0026
     22 C         141.4378  138.1088  164.1823 C.ar    1  UNL1       -0.0003
     23 C         140.1616  137.3512  163.9645 C.ar    1  UNL1       -0.0000
     24 C         138.9367  137.7020  164.7562 C.ar    1  UNL1       -0.0003
     25 C         138.9881  138.8104  165.7655 C.ar    1  UNL1       -0.0026
@<TRIPOS>BOND
     1     2     1    1
     2     2     3    1
     3     3     4    1
     4     4     8    1
     5     8     9   ar
     6     9    10   ar
     7    10    11   ar
     8    11    12   ar
     9    12    13   ar
    10    12    14    1
    11    14    15   am
    12    15    16    2
    13    15    17    1
    14    17    18    1
    15     4     5    1
    16     5    20    1
    17    20    21   ar
    18    21    22   ar
    19    22    23   ar
    20    23    24   ar
    21    24    25   ar
    22     5     6    1
    23     6     7    1
    24     7     2    1
    25    13     8   ar
    26    25    20   ar
    27    18    11    1
    28    14    19    1
@<TRIPOS>MOLECULE
*****
 25 28 0 0 0
SMALL
GASTEIGER

@<TRIPOS>ATOM
      1 C         140.0543  142.9211  170.8485 C.3     1  UNL1        0.0339
      2 C         139.9766  142.1012  169.5949 C.3     1  UNL1        0.1351
      3 C         140.4299  142.6832  168.2888 C.3     1  UNL1        0.1219
      4 N         140.3522  141.8633  167.0351 N.pl3   1  UNL1       -0.2861
      5 C         139.8211  140.4615  167.0875 C.3     1  UNL1        0.1263
      6 C         139.3677  139.8795  168.3935 C.3     1  UNL1        0.1663
      7 O         139.4455  140.6994  169.6472 O.3     1  UNL1       -0.3524
      8 C         140.8055  142.4453  165.7290 C.ar    1  UNL1        0.1336
      9 C         142.1217  142.0318  165.1402 C.ar    1  UNL1        0.0375
     10 C         142.5750  142.6138  163.8342 C.ar    1  UNL1        0.0427
     11 C         141.7121  143.6092  163.1169 C.ar    1  UNL1        0.1709
     12 C         140.3959  144.0227  163.7056 C.ar    1  UNL1        0.1699
     13 N         139.9427  143.4407  165.0117 N.ar    1  UNL1       -0.2127
     14 N         139.5331  145.0181  162.9883 N.am    1  UNL1       -0.2638
     15 C         139.9864  145.6001  161.6823 C.2     1  UNL1        0.2718
     16 O         139.1235  146.5956  160.9650 O.2     1  UNL1       -0.2707
     17 C         141.3026  145.1866  161.0935 C.3     1  UNL1        0.2898
     18 O         142.1655  144.1912  161.8108 O.3     1  UNL1       -0.4628
     19 H         138.6692  145.2895  163.3748 H       1  UNL1        0.1565
     20 C         139.7434  139.6416  165.8337 C.ar    1  UNL1       -0.0019
     21 C         138.5614  139.7783  164.9203 C.ar    1  UNL1       -0.0026
     22 C         138.4837  138.9585  163.6666 C.ar    1  UNL1       -0.0003
     23 C         139.5878  138.0019  163.3263 C.ar    1  UNL1       -0.0000
     24 C         140.7697  137.8652  164.2398 C.ar    1  UNL1       -0.0003
     25 C         140.8475  138.6850  165.4934 C.ar    1  UNL1       -0.0026
@<TRIPOS>BOND
     1     2     1    1
     2     2     3    1
     3     3     4    1
     4     4     8    1
     5     8     9   ar
     6     9    10   ar
     7    10    11   ar
     8    11    12   ar
     9    12    13   ar
    10    12    14    1
    11    14    15   am
    12    15    16    2
    13    15    17    1
    14    17    18    1
    15     4     5    1
    16     5    20    1
    17    20    21   ar
    18    21    22   ar
    19    22    23   ar
    20    23    24   ar
    21    24    25   ar
    22     5     6    1
    23     6     7    1
    24     7     2    1
    25    13     8   ar
    26    25    20   ar
    27    18    11    1
    28    14    19    1
@<TRIPOS>MOLECULE
*****
 25 28 0 0 0
SMALL
GASTEIGER

@<TRIPOS>ATOM
      1 C         144.4137  139.7194  161.6828 C.3     1  UNL1        0.0339
      2 C         143.2716  140.5196  162.2353 C.3     1  UNL1        0.1351
      3 C         142.7294  140.2100  163.5992 C.3     1  UNL1        0.1219
      4 N         141.5873  141.0101  164.1517 N.pl3   1  UNL1       -0.2861
      5 C         140.9874  142.1200  163.3404 C.3     1  UNL1        0.1263
      6 C         141.5295  142.4296  161.9765 C.3     1  UNL1        0.1663
      7 O         142.6716  141.6294  161.4239 O.3     1  UNL1       -0.3524
      8 C         141.0452  140.7005  165.5157 C.ar    1  UNL1        0.1336
      9 C         139.9242  139.7161  165.6714 C.ar    1  UNL1        0.0375
     10 C         139.3821  139.4065  167.0353 C.ar    1  UNL1        0.0427
     11 C         139.9610  140.0813  168.2434 C.ar    1  UNL1        0.1709
     12 C         141.0819  141.0657  168.0877 C.ar    1  UNL1        0.1699
     13 N         141.6241  141.3753  166.7238 N.ar    1  UNL1       -0.2127
     14 N         141.6608  141.7406  169.2958 N.am    1  UNL1       -0.2638
     15 C         141.1187  141.4310  170.6597 C.2     1  UNL1        0.2718
     16 O         141.6976  142.1058  171.8678 O.2     1  UNL1       -0.2707
     17 C         139.9977  140.4465  170.8155 C.3     1  UNL1        0.2898
     18 O         139.4188  139.7717  169.6074 O.3     1  UNL1       -0.4628
     19 H         142.3966  142.3867  169.1935 H       1  UNL1        0.1565
     20 C         139.8452  142.9202  163.8930 C.ar    1  UNL1       -0.0019
     21 C         138.4322  142.5210  163.5863 C.ar    1  UNL1       -0.0026
     22 C         137.2901  143.3211  164.1388 C.ar    1  UNL1       -0.0003
     23 C         137.5610  144.5204  164.9980 C.ar    1  UNL1       -0.0000
     24 C         138.9740  144.9196  165.3047 C.ar    1  UNL1       -0.0003
     25 C         140.1161  144.1194  164.7522 C.ar    1  UNL1       -0.0026
@<TRIPOS>BOND
     1     2     1    1
     2     2     3    1
     3     3     4    1
     4     4     8    1
     5     8     9   ar
     6     9    10   ar
     7    10    11   ar
     8    11    12   ar
     9    12    13   ar
    10    12    14    1
    11    14    15   am
    12    15    16    2
    13    15    17    1
    14    17    18    1
    15     4     5    1
    16     5    20    1
    17    20    21   ar
    18    21    22   ar
    19    22    23   ar
    20    23    24   ar
    21    24    25   ar
    22     5     6    1
    23     6     7    1
    24     7     2    1
    25    13     8   ar
    26    25    20   ar
    27    18    11    1
    28    14    19    1
