@<TRIPOS>MOLECULE
*****
 19 20 0 0 0
SMALL
GASTEIGER

@<TRIPOS>ATOM
      1 C         138.8779  143.5870  163.9571 C.ar    1  UNL1        0.0304
      2 C         138.5828  144.7541  163.0623 C.ar    1  UNL1        0.0297
      3 C         139.7082  145.5645  162.4908 C.ar    1  UNL1        0.1401
      4 F         139.4130  146.7317  161.5960 F       1  UNL1       -0.2042
      5 C         141.1288  145.2078  162.8141 C.ar    1  UNL1        0.0327
      6 C         141.4240  144.0407  163.7089 C.ar    1  UNL1        0.0395
      7 C         140.2985  143.2303  164.2804 C.ar    1  UNL1        0.1427
      8 C         137.7524  142.7767  164.5286 C.3     1  UNL1        0.0988
      9 C         137.7246  140.6836  162.9897 C.3     1  UNL1        0.0861
     10 N         137.7424  141.2859  164.3634 N.3     1  UNL1       -0.2925
     11 H         138.5781  140.9323  164.8291 H       1  UNL1        0.1236
     12 O         140.5937  142.0631  165.1752 O.3     1  UNL1       -0.4538
     13 C         141.1494  142.2933  166.5493 C.ar    1  UNL1        0.1453
     14 C         142.5974  142.0188  166.8285 C.ar    1  UNL1        0.0384
     15 C         143.1530  142.2489  168.2026 C.ar    1  UNL1        0.0145
     16 C         142.2607  142.7535  169.2976 C.ar    1  UNL1        0.0579
     17 CL        142.8163  142.9837  170.6718 Cl      1  UNL1       -0.0822
     18 C         140.8127  143.0280  169.0185 C.ar    1  UNL1        0.0145
     19 C         140.2570  142.7979  167.6443 C.ar    1  UNL1        0.0384
@<TRIPOS>BOND
     1     9    10    1
     2    10     8    1
     3     8     1    1
     4     1     2   ar
     5     2     3   ar
     6     3     4    1
     7     3     5   ar
     8     5     6   ar
     9     6     7   ar
    10     7    12    1
    11    12    13    1
    12    13    14   ar
    13    14    15   ar
    14    15    16   ar
    15    16    17    1
    16    16    18   ar
    17    18    19   ar
    18     7     1   ar
    19    19    13   ar
    20    10    11    1
@<TRIPOS>MOLECULE
*****
 19 20 0 0 0
SMALL
GASTEIGER

@<TRIPOS>ATOM
      1 C         139.7762  140.6266  167.6536 C.ar    1  UNL1        0.0304
      2 C         138.7281  139.6299  168.0513 C.ar    1  UNL1        0.0297
      3 C         138.0244  138.8222  167.0014 C.ar    1  UNL1        0.1401
      4 F         136.9763  137.8255  167.3991 F       1  UNL1       -0.2042
      5 C         138.3688  139.0112  165.5537 C.ar    1  UNL1        0.0327
      6 C         139.4168  140.0078  165.1561 C.ar    1  UNL1        0.0395
      7 C         140.1205  140.8155  166.2060 C.ar    1  UNL1        0.1427
      8 C         140.4799  141.4343  168.7036 C.3     1  UNL1        0.0988
      9 C         140.4753  143.7839  169.8123 C.3     1  UNL1        0.0861
     10 N         140.5449  142.9279  168.5825 N.3     1  UNL1       -0.2925
     11 H         141.4272  143.1478  168.1203 H       1  UNL1        0.1236
     12 O         141.1686  141.8123  165.8083 O.3     1  UNL1       -0.4538
     13 C         140.8247  142.9259  164.8642 C.ar    1  UNL1        0.1453
     14 C         139.5697  143.7218  165.0686 C.ar    1  UNL1        0.0384
     15 C         139.2257  144.8355  164.1245 C.ar    1  UNL1        0.0145
     16 C         140.1367  145.1534  162.9760 C.ar    1  UNL1        0.0579
     17 CL        139.7927  146.2671  162.0319 Cl      1  UNL1       -0.0822
     18 C         141.3916  144.3576  162.7716 C.ar    1  UNL1        0.0145
     19 C         141.7356  143.2439  163.7157 C.ar    1  UNL1        0.0384
@<TRIPOS>BOND
     1     9    10    1
     2    10     8    1
     3     8     1    1
     4     1     2   ar
     5     2     3   ar
     6     3     4    1
     7     3     5   ar
     8     5     6   ar
     9     6     7   ar
    10     7    12    1
    11    12    13    1
    12    13    14   ar
    13    14    15   ar
    14    15    16   ar
    15    16    17    1
    16    16    18   ar
    17    18    19   ar
    18     7     1   ar
    19    19    13   ar
    20    10    11    1
@<TRIPOS>MOLECULE
*****
 19 20 0 0 0
SMALL
GASTEIGER

@<TRIPOS>ATOM
      1 C         142.2441  141.9171  167.5825 C.ar    1  UNL1        0.0304
      2 C         143.0577  142.2158  168.8067 C.ar    1  UNL1        0.0297
      3 C         142.4617  143.0164  169.9264 C.ar    1  UNL1        0.1401
      4 F         143.2755  143.3151  171.1507 F       1  UNL1       -0.2042
      5 C         141.0521  143.5184  169.8219 C.ar    1  UNL1        0.0327
      6 C         140.2385  143.2197  168.5977 C.ar    1  UNL1        0.0395
      7 C         140.8344  142.4191  167.4780 C.ar    1  UNL1        0.1427
      8 C         142.8400  141.1165  166.4627 C.3     1  UNL1        0.0988
      9 C         142.8902  138.6155  165.7609 C.3     1  UNL1        0.0861
     10 N         142.1324  139.8955  165.9545 N.3     1  UNL1       -0.2925
     11 H         141.3800  139.6955  166.6135 H       1  UNL1        0.1236
     12 O         140.0207  142.1204  166.2538 O.3     1  UNL1       -0.4538
     13 C         139.9005  143.1449  165.1648 C.ar    1  UNL1        0.1453
     14 C         141.1280  143.8282  164.6390 C.ar    1  UNL1        0.0384
     15 C         141.0079  144.8527  163.5500 C.ar    1  UNL1        0.0145
     16 C         139.6602  145.1939  162.9867 C.ar    1  UNL1        0.0579
     17 CL        139.5400  146.2184  161.8977 Cl      1  UNL1       -0.0822
     18 C         138.4327  144.5106  163.5124 C.ar    1  UNL1        0.0145
     19 C         138.5528  143.4861  164.6014 C.ar    1  UNL1        0.0384
@<TRIPOS>BOND
     1     9    10    1
     2    10     8    1
     3     8     1    1
     4     1     2   ar
     5     2     3   ar
     6     3     4    1
     7     3     5   ar
     8     5     6   ar
     9     6     7   ar
    10     7    12    1
    11    12    13    1
    12    13    14   ar
    13    14    15   ar
    14    15    16   ar
    15    16    17    1
    16    16    18   ar
    17    18    19   ar
    18     7     1   ar
    19    19    13   ar
    20    10    11    1
@<TRIPOS>MOLECULE
*****
 19 20 0 0 0
SMALL
GASTEIGER

@<TRIPOS>ATOM
      1 C         138.4796  141.7631  164.5146 C.ar    1  UNL1        0.0304
      2 C         137.7800  142.6978  163.5729 C.ar    1  UNL1        0.0297
      3 C         138.1479  144.1518  163.5481 C.ar    1  UNL1        0.1401
      4 F         137.4482  145.0865  162.6064 F       1  UNL1       -0.2042
      5 C         139.2155  144.6710  164.4650 C.ar    1  UNL1        0.0327
      6 C         139.9151  143.7362  165.4066 C.ar    1  UNL1        0.0395
      7 C         139.5471  142.2823  165.4314 C.ar    1  UNL1        0.1427
      8 C         138.1116  140.3091  164.5394 C.3     1  UNL1        0.0988
      9 C         138.3725  138.2268  166.0710 C.3     1  UNL1        0.0861
     10 N         137.8640  139.6203  165.8486 N.3     1  UNL1       -0.2925
     11 H         138.2815  140.2051  166.5726 H       1  UNL1        0.1236
     12 O         140.2468  141.3475  166.3731 O.3     1  UNL1       -0.4538
     13 C         141.0213  141.8945  167.5354 C.ar    1  UNL1        0.1453
     14 C         140.3067  142.6135  168.6411 C.ar    1  UNL1        0.0384
     15 C         141.0812  143.1606  169.8034 C.ar    1  UNL1        0.0145
     16 C         142.5702  142.9887  169.8600 C.ar    1  UNL1        0.0579
     17 CL        143.3447  143.5357  171.0223 Cl      1  UNL1       -0.0822
     18 C         143.2848  142.2697  168.7544 C.ar    1  UNL1        0.0145
     19 C         142.5103  141.7226  167.5920 C.ar    1  UNL1        0.0384
@<TRIPOS>BOND
     1     9    10    1
     2    10     8    1
     3     8     1    1
     4     1     2   ar
     5     2     3   ar
     6     3     4    1
     7     3     5   ar
     8     5     6   ar
     9     6     7   ar
    10     7    12    1
    11    12    13    1
    12    13    14   ar
    13    14    15   ar
    14    15    16   ar
    15    16    17    1
    16    16    18   ar
    17    18    19   ar
    18     7     1   ar
    19    19    13   ar
    20    10    11    1
@<TRIPOS>MOLECULE
*****
 19 20 0 0 0
SMALL
GASTEIGER

@<TRIPOS>ATOM
      1 C         139.6939  138.2594  164.6066 C.ar    1  UNL1        0.0304
      2 C         138.4494  137.9148  165.3698 C.ar    1  UNL1        0.0297
      3 C         138.1795  138.5617  166.6959 C.ar    1  UNL1        0.1401
      4 F         136.9349  138.2170  167.4590 F       1  UNL1       -0.2042
      5 C         139.1541  139.5531  167.2590 C.ar    1  UNL1        0.0327
      6 C         140.3986  139.8977  166.4958 C.ar    1  UNL1        0.0395
      7 C         140.6685  139.2508  165.1697 C.ar    1  UNL1        0.1427
      8 C         139.9638  137.6125  163.2805 C.3     1  UNL1        0.0988
      9 C         142.0397  137.6450  161.7186 C.3     1  UNL1        0.0861
     10 N         141.3458  137.1345  162.9466 N.3     1  UNL1       -0.2925
     11 H         141.9396  137.3727  163.7409 H       1  UNL1        0.1236
     12 O         141.9131  139.5955  164.4065 O.3     1  UNL1       -0.4538
     13 C         142.3804  141.0191  164.3374 C.ar    1  UNL1        0.1453
     14 C         141.5623  142.0425  163.6070 C.ar    1  UNL1        0.0384
     15 C         142.0296  143.4661  163.5379 C.ar    1  UNL1        0.0145
     16 C         143.3151  143.8664  164.1992 C.ar    1  UNL1        0.0579
     17 CL        143.7825  145.2901  164.1301 Cl      1  UNL1       -0.0822
     18 C         144.1333  142.8432  164.9295 C.ar    1  UNL1        0.0145
     19 C         143.6659  141.4194  164.9987 C.ar    1  UNL1        0.0384
@<TRIPOS>BOND
     1     9    10    1
     2    10     8    1
     3     8     1    1
     4     1     2   ar
     5     2     3   ar
     6     3     4    1
     7     3     5   ar
     8     5     6   ar
     9     6     7   ar
    10     7    12    1
    11    12    13    1
    12    13    14   ar
    13    14    15   ar
    14    15    16   ar
    15    16    17    1
    16    16    18   ar
    17    18    19   ar
    18     7     1   ar
    19    19    13   ar
    20    10    11    1
@<TRIPOS>MOLECULE
*****
 19 20 0 0 0
SMALL
GASTEIGER

@<TRIPOS>ATOM
      1 C         140.1850  140.7529  169.2202 C.ar    1  UNL1        0.0304
      2 C         141.4373  141.3967  169.7372 C.ar    1  UNL1        0.0297
      3 C         142.6970  141.3465  168.9245 C.ar    1  UNL1        0.1401
      4 F         143.9493  141.9903  169.4415 F       1  UNL1       -0.2042
      5 C         142.7045  140.6527  167.5946 C.ar    1  UNL1        0.0327
      6 C         141.4522  140.0089  167.0776 C.ar    1  UNL1        0.0395
      7 C         140.1925  140.0590  167.8904 C.ar    1  UNL1        0.1427
      8 C         138.9253  140.8030  170.0330 C.3     1  UNL1        0.0988
      9 C         136.9452  139.2834  170.7539 C.3     1  UNL1        0.0861
     10 N         138.4182  139.5630  170.7076 N.3     1  UNL1       -0.2925
     11 H         138.8534  138.7713  170.2342 H       1  UNL1        0.1236
     12 O         138.9402  139.4152  167.3733 O.3     1  UNL1       -0.4538
     13 C         138.7450  139.2328  165.8973 C.ar    1  UNL1        0.1453
     14 C         139.0536  137.9115  165.2576 C.ar    1  UNL1        0.0384
     15 C         138.8584  137.7291  163.7816 C.ar    1  UNL1        0.0145
     16 C         138.3548  138.8679  162.9453 C.ar    1  UNL1        0.0579
     17 CL        138.1597  138.6855  161.4693 Cl      1  UNL1       -0.0822
     18 C         138.0463  140.1891  163.5849 C.ar    1  UNL1        0.0145
     19 C         138.2414  140.3716  165.0609 C.ar    1  UNL1        0.0384
@<TRIPOS>BOND
     1     9    10    1
     2    10     8    1
     3     8     1    1
     4     1     2   ar
     5     2     3   ar
     6     3     4    1
     7     3     5   ar
     8     5     6   ar
     9     6     7   ar
    10     7    12    1
    11    12    13    1
    12    13    14   ar
    13    14    15   ar
    14    15    16   ar
    15    16    17    1
    16    16    18   ar
    17    18    19   ar
    18     7     1   ar
    19    19    13   ar
    20    10    11    1
@<TRIPOS>MOLECULE
*****
 19 20 0 0 0
SMALL
GASTEIGER

@<TRIPOS>ATOM
      1 C         141.1423  141.9340  167.7339 C.ar    1  UNL1        0.0304
      2 C         140.6267  142.8871  168.7710 C.ar    1  UNL1        0.0297
      3 C         139.8184  142.3737  169.9256 C.ar    1  UNL1        0.1401
      4 F         139.3027  143.3269  170.9628 F       1  UNL1       -0.2042
      5 C         139.5258  140.9073  170.0431 C.ar    1  UNL1        0.0327
      6 C         140.0414  139.9542  169.0060 C.ar    1  UNL1        0.0395
      7 C         140.8497  140.4675  167.8514 C.ar    1  UNL1        0.1427
      8 C         141.9506  142.4473  166.5793 C.3     1  UNL1        0.0988
      9 C         144.0441  142.2823  165.0495 C.3     1  UNL1        0.0861
     10 N         143.2602  141.8022  166.2349 N.3     1  UNL1       -0.2925
     11 H         143.8642  141.9085  167.0500 H       1  UNL1        0.1236
     12 O         141.3654  139.5143  166.8143 O.3     1  UNL1       -0.4538
     13 C         140.5096  139.1524  165.6367 C.ar    1  UNL1        0.1453
     14 C         140.8683  137.9719  164.7836 C.ar    1  UNL1        0.0384
     15 C         140.0125  137.6099  163.6060 C.ar    1  UNL1        0.0145
     16 C         138.7981  138.4284  163.2815 C.ar    1  UNL1        0.0579
     17 CL        137.9424  138.0665  162.1040 Cl      1  UNL1       -0.0822
     18 C         138.4395  139.6089  164.1346 C.ar    1  UNL1        0.0145
     19 C         139.2952  139.9709  165.3122 C.ar    1  UNL1        0.0384
@<TRIPOS>BOND
     1     9    10    1
     2    10     8    1
     3     8     1    1
     4     1     2   ar
     5     2     3   ar
     6     3     4    1
     7     3     5   ar
     8     5     6   ar
     9     6     7   ar
    10     7    12    1
    11    12    13    1
    12    13    14   ar
    13    14    15   ar
    14    15    16   ar
    15    16    17    1
    16    16    18   ar
    17    18    19   ar
    18     7     1   ar
    19    19    13   ar
    20    10    11    1
@<TRIPOS>MOLECULE
*****
 19 20 0 0 0
SMALL
GASTEIGER

@<TRIPOS>ATOM
      1 C         140.3488  140.4663  167.0474 C.ar    1  UNL1        0.0304
      2 C         139.4454  139.8847  168.0941 C.ar    1  UNL1        0.0297
      3 C         139.2369  140.6085  169.3912 C.ar    1  UNL1        0.1401
      4 F         138.3334  140.0268  170.4379 F       1  UNL1       -0.2042
      5 C         139.9317  141.9140  169.6417 C.ar    1  UNL1        0.0327
      6 C         140.8351  142.4957  168.5951 C.ar    1  UNL1        0.0395
      7 C         141.0436  141.7718  167.2979 C.ar    1  UNL1        0.1427
      8 C         140.5573  139.7425  165.7503 C.3     1  UNL1        0.0988
      9 C         142.9352  138.7264  166.0015 C.3     1  UNL1        0.0861
     10 N         141.9455  139.5386  165.2200 N.3     1  UNL1       -0.2925
     11 H         141.8498  139.0893  164.3093 H       1  UNL1        0.1236
     12 O         141.9471  142.3536  166.2512 O.3     1  UNL1       -0.4538
     13 C         141.3937  143.2921  165.2203 C.ar    1  UNL1        0.1453
     14 C         142.2929  143.8577  164.1612 C.ar    1  UNL1        0.0384
     15 C         141.7395  144.7962  163.1303 C.ar    1  UNL1        0.0145
     16 C         140.2869  145.1692  163.1584 C.ar    1  UNL1        0.0579
     17 CL        139.7334  146.1077  162.1275 Cl      1  UNL1       -0.0822
     18 C         139.3877  144.6037  164.2174 C.ar    1  UNL1        0.0145
     19 C         139.9411  143.6651  165.2484 C.ar    1  UNL1        0.0384
@<TRIPOS>BOND
     1     9    10    1
     2    10     8    1
     3     8     1    1
     4     1     2   ar
     5     2     3   ar
     6     3     4    1
     7     3     5   ar
     8     5     6   ar
     9     6     7   ar
    10     7    12    1
    11    12    13    1
    12    13    14   ar
    13    14    15   ar
    14    15    16   ar
    15    16    17    1
    16    16    18   ar
    17    18    19   ar
    18     7     1   ar
    19    19    13   ar
    20    10    11    1
@<TRIPOS>MOLECULE
*****
 19 20 0 0 0
SMALL
GASTEIGER

@<TRIPOS>ATOM
      1 C         141.5329  139.8463  167.7020 C.ar    1  UNL1        0.0304
      2 C         142.8502  139.1327  167.7752 C.ar    1  UNL1        0.0297
      3 C         143.3681  138.3897  166.5795 C.ar    1  UNL1        0.1401
      4 F         144.6855  137.6761  166.6527 F       1  UNL1       -0.2042
      5 C         142.5688  138.3604  165.3106 C.ar    1  UNL1        0.0327
      6 C         141.2515  139.0740  165.2374 C.ar    1  UNL1        0.0395
      7 C         140.7336  139.8170  166.4331 C.ar    1  UNL1        0.1427
      8 C         141.0150  140.5893  168.8977 C.3     1  UNL1        0.0988
      9 C         138.6882  140.3254  170.0230 C.3     1  UNL1        0.0861
     10 N         140.1185  139.8966  169.8807 N.3     1  UNL1       -0.2925
     11 H         140.1058  138.9097  169.6229 H       1  UNL1        0.1236
     12 O         139.4162  140.5307  166.3599 O.3     1  UNL1       -0.4538
     13 C         139.2539  141.7145  165.4532 C.ar    1  UNL1        0.1453
     14 C         140.2997  142.7897  165.4291 C.ar    1  UNL1        0.0384
     15 C         140.1375  143.9735  164.5224 C.ar    1  UNL1        0.0145
     16 C         138.9295  144.0824  163.6398 C.ar    1  UNL1        0.0579
     17 CL        138.7672  145.2662  162.7332 Cl      1  UNL1       -0.0822
     18 C         137.8837  143.0073  163.6639 C.ar    1  UNL1        0.0145
     19 C         138.0459  141.8233  164.5706 C.ar    1  UNL1        0.0384
@<TRIPOS>BOND
     1     9    10    1
     2    10     8    1
     3     8     1    1
     4     1     2   ar
     5     2     3   ar
     6     3     4    1
     7     3     5   ar
     8     5     6   ar
     9     6     7   ar
    10     7    12    1
    11    12    13    1
    12    13    14   ar
    13    14    15   ar
    14    15    16   ar
    15    16    17    1
    16    16    18   ar
    17    18    19   ar
    18     7     1   ar
    19    19    13   ar
    20    10    11    1
