@<TRIPOS>MOLECULE
*****
 38 42 0 0 0
SMALL
GASTEIGER

@<TRIPOS>ATOM
      1 C         138.3927  140.2937  159.6646 C.3     1  UNL1        0.0118
      2 C         137.7196  140.5981  160.9700 C.3     1  UNL1        0.0179
      3 C         137.9791  139.7327  162.1674 C.3     1  UNL1        0.0724
      4 N         138.9117  138.5628  162.0592 N.3     1  UNL1       -0.2689
      5 C         139.5848  138.2584  160.7538 C.3     1  UNL1        0.0724
      6 C         139.3254  139.1239  159.5565 C.3     1  UNL1        0.0179
      7 C         138.1333  141.1592  158.4672 C.3     1  UNL1        0.0854
      8 O         139.4222  140.8490  156.2329 O.2     1  UNL1       -0.2749
      9 C         139.2632  141.5373  157.5561 C.2     1  UNL1        0.2258
     10 N         140.2343  142.6038  157.9682 N.am    1  UNL1       -0.2739
     11 C         141.3642  142.9819  157.0571 C.3     1  UNL1        0.1255
     12 C         142.3352  144.0483  157.4693 C.3     1  UNL1        0.1642
     13 O         142.1762  144.7366  158.7925 O.3     1  UNL1       -0.3436
     14 C         141.0463  144.3585  159.7036 C.3     1  UNL1        0.2107
     15 C         140.0753  143.2921  159.2915 C.3     1  UNL1        0.1324
     16 C         140.8873  145.0468  161.0269 C.2     1  UNL1        0.2546
     17 O         139.7266  145.9682  161.2583 O.2     1  UNL1       -0.2722
     18 N         141.8891  144.8136  162.1187 N.am    1  UNL1       -0.2775
     19 C         141.8615  145.4285  163.4866 C.3     1  UNL1        0.0935
     20 C         143.0496  144.9195  164.2477 C.3     1  UNL1        0.0233
     21 C         143.8116  143.9901  163.3500 C.3     1  UNL1        0.0233
     22 C         143.0943  143.9247  162.0343 C.3     1  UNL1        0.0935
     23 C         139.1712  137.6973  163.2567 C.3     1  UNL1        0.1007
     24 C         140.2924  138.0320  164.1951 C.ar    1  UNL1        0.0129
     25 C         141.5816  137.2776  164.3331 C.ar    1  UNL1        0.0176
     26 C         142.4073  137.9591  165.3836 C.ar    1  UNL1        0.0799
     27 N         141.6285  139.1348  165.8950 N.ar    1  UNL1       -0.3038
     28 C         140.3214  139.1798  165.1604 C.ar    1  UNL1        0.0772
     29 C         142.0778  140.0965  166.9547 C.ar    1  UNL1        0.0640
     30 C         142.1123  139.6670  168.3915 C.ar    1  UNL1        0.0175
     31 C         142.5616  140.6287  169.4512 C.ar    1  UNL1        0.0053
     32 C         142.9766  142.0199  169.0743 C.ar    1  UNL1        0.0715
     33 C         142.9422  142.4495  167.6376 C.ar    1  UNL1        0.0053
     34 C         142.4928  141.4878  166.5778 C.ar    1  UNL1        0.0175
     35 C         143.4259  142.9816  170.1341 C.3     1  UNL1        0.4186
     36 F         143.8754  143.9433  171.1939 F       1  UNL1       -0.1659
     37 F         142.0295  143.5191  170.2385 F       1  UNL1       -0.1659
     38 F         144.8225  142.4442  170.0297 F       1  UNL1       -0.1659
@<TRIPOS>BOND
     1     8     9    2
     2     9     7    1
     3     7     1    1
     4     1     2    1
     5     2     3    1
     6     3     4    1
     7     4    23    1
     8    23    24    1
     9    24    25   ar
    10    25    26   ar
    11    26    27   ar
    12    27    29    1
    13    29    30   ar
    14    30    31   ar
    15    31    32   ar
    16    32    35    1
    17    35    36    1
    18    35    37    1
    19    35    38    1
    20    32    33   ar
    21    33    34   ar
    22    27    28   ar
    23     4     5    1
    24     5     6    1
    25     9    10   am
    26    10    11    1
    27    11    12    1
    28    12    13    1
    29    13    14    1
    30    14    16    1
    31    16    17    2
    32    16    18   am
    33    18    19    1
    34    19    20    1
    35    20    21    1
    36    21    22    1
    37    14    15    1
    38     6     1    1
    39    15    10    1
    40    28    24   ar
    41    22    18    1
    42    34    29   ar
@<TRIPOS>MOLECULE
*****
 38 42 0 0 0
SMALL
GASTEIGER

@<TRIPOS>ATOM
      1 C         138.6390  140.2139  159.5042 C.3     1  UNL1        0.0118
      2 C         139.7505  139.2070  159.5271 C.3     1  UNL1        0.0179
      3 C         139.9551  138.3431  160.7361 C.3     1  UNL1        0.0724
      4 N         139.0482  138.4861  161.9223 N.3     1  UNL1       -0.2689
      5 C         137.9366  139.4930  161.8994 C.3     1  UNL1        0.0724
      6 C         137.7320  140.3569  160.6904 C.3     1  UNL1        0.0179
      7 C         138.4343  141.0778  158.2952 C.3     1  UNL1        0.0854
      8 O         140.1149  141.1570  156.3154 O.2     1  UNL1       -0.2749
      9 C         139.6134  141.7097  157.6166 C.2     1  UNL1        0.2258
     10 N         140.2910  142.8943  158.2392 N.am    1  UNL1       -0.2739
     11 C         141.4701  143.5262  157.5606 C.3     1  UNL1        0.1255
     12 C         142.1476  144.7107  158.1832 C.3     1  UNL1        0.1642
     13 O         141.6461  145.2635  159.4843 O.3     1  UNL1       -0.3436
     14 C         140.4671  144.6316  160.1629 C.3     1  UNL1        0.2107
     15 C         139.7895  143.4470  159.5403 C.3     1  UNL1        0.1324
     16 C         139.9655  145.1843  161.4641 C.2     1  UNL1        0.2546
     17 O         139.2356  146.4944  161.4908 O.2     1  UNL1       -0.2722
     18 N         140.1940  144.4269  162.7384 N.am    1  UNL1       -0.2775
     19 C         139.7531  144.8519  164.1078 C.3     1  UNL1        0.0935
     20 C         140.1900  143.7992  165.0829 C.3     1  UNL1        0.0233
     21 C         140.9010  142.7237  164.3162 C.3     1  UNL1        0.0233
     22 C         140.9035  143.1117  162.8673 C.3     1  UNL1        0.0935
     23 C         139.2528  137.6222  163.1314 C.3     1  UNL1        0.1007
     24 C         139.2511  138.2353  164.5003 C.ar    1  UNL1        0.0129
     25 C         138.1932  138.0511  165.5476 C.ar    1  UNL1        0.0176
     26 C         138.5953  138.8423  166.7568 C.ar    1  UNL1        0.0799
     27 N         139.9018  139.5156  166.4569 N.ar    1  UNL1       -0.3038
     28 C         140.3071  139.1405  165.0623 C.ar    1  UNL1        0.0772
     29 C         140.6683  140.4074  167.3881 C.ar    1  UNL1        0.0640
     30 C         142.0944  140.7596  167.0850 C.ar    1  UNL1        0.0175
     31 C         142.8609  141.6514  168.0162 C.ar    1  UNL1        0.0053
     32 C         142.2013  142.1910  169.2505 C.ar    1  UNL1        0.0715
     33 C         140.7751  141.8387  169.5537 C.ar    1  UNL1        0.0053
     34 C         140.0086  140.9469  168.6225 C.ar    1  UNL1        0.0175
     35 C         142.9678  143.0828  170.1817 C.3     1  UNL1        0.4186
     36 F         143.7342  143.9747  171.1129 F       1  UNL1       -0.1659
     37 F         144.1795  142.2143  170.0160 F       1  UNL1       -0.1659
     38 F         141.7560  143.9513  170.3474 F       1  UNL1       -0.1659
@<TRIPOS>BOND
     1     8     9    2
     2     9     7    1
     3     7     1    1
     4     1     2    1
     5     2     3    1
     6     3     4    1
     7     4    23    1
     8    23    24    1
     9    24    25   ar
    10    25    26   ar
    11    26    27   ar
    12    27    29    1
    13    29    30   ar
    14    30    31   ar
    15    31    32   ar
    16    32    35    1
    17    35    36    1
    18    35    37    1
    19    35    38    1
    20    32    33   ar
    21    33    34   ar
    22    27    28   ar
    23     4     5    1
    24     5     6    1
    25     9    10   am
    26    10    11    1
    27    11    12    1
    28    12    13    1
    29    13    14    1
    30    14    16    1
    31    16    17    2
    32    16    18   am
    33    18    19    1
    34    19    20    1
    35    20    21    1
    36    21    22    1
    37    14    15    1
    38     6     1    1
    39    15    10    1
    40    28    24   ar
    41    22    18    1
    42    34    29   ar
@<TRIPOS>MOLECULE
*****
 38 42 0 0 0
SMALL
GASTEIGER

@<TRIPOS>ATOM
      1 C         140.1108  139.4699  159.6486 C.3     1  UNL1        0.0118
      2 C         141.2336  138.7268  160.3098 C.3     1  UNL1        0.0179
      3 C         141.0003  138.0183  161.6111 C.3     1  UNL1        0.0724
      4 N         139.6443  138.0530  162.2514 N.3     1  UNL1       -0.2689
      5 C         138.5215  138.7961  161.5903 C.3     1  UNL1        0.0724
      6 C         138.7548  139.5046  160.2889 C.3     1  UNL1        0.0179
      7 C         140.3441  140.1785  158.3472 C.3     1  UNL1        0.0854
      8 O         138.8141  142.0002  157.3031 O.2     1  UNL1       -0.2749
      9 C         139.9563  141.6197  158.1979 C.2     1  UNL1        0.2258
     10 N         140.7106  142.6805  158.9434 N.am    1  UNL1       -0.2739
     11 C         140.3227  144.1218  158.7941 C.3     1  UNL1        0.1255
     12 C         141.0771  145.1825  159.5396 C.3     1  UNL1        0.1642
     13 O         142.2192  144.8020  160.4344 O.3     1  UNL1       -0.3436
     14 C         142.6071  143.3607  160.5837 C.3     1  UNL1        0.2107
     15 C         141.8527  142.3000  159.8382 C.3     1  UNL1        0.1324
     16 C         143.7492  142.9802  161.4786 C.2     1  UNL1        0.2546
     17 O         145.1027  142.7078  160.8923 O.2     1  UNL1       -0.2722
     18 N         143.5379  142.8722  162.9596 N.am    1  UNL1       -0.2775
     19 C         144.5793  142.5037  163.9743 C.3     1  UNL1        0.0935
     20 C         143.9331  142.5174  165.3279 C.3     1  UNL1        0.0233
     21 C         142.4922  142.8944  165.1497 C.3     1  UNL1        0.0233
     22 C         142.2479  143.1137  163.6861 C.3     1  UNL1        0.0935
     23 C         139.4110  137.3444  163.5528 C.3     1  UNL1        0.1007
     24 C         139.3655  138.1240  164.8335 C.ar    1  UNL1        0.0129
     25 C         138.2003  138.2066  165.7744 C.ar    1  UNL1        0.0176
     26 C         138.5918  139.0914  166.9206 C.ar    1  UNL1        0.0799
     27 N         139.9992  139.5557  166.6881 N.ar    1  UNL1       -0.3038
     28 C         140.4773  138.9577  165.3982 C.ar    1  UNL1        0.0772
     29 C         140.7895  140.4592  167.5875 C.ar    1  UNL1        0.0640
     30 C         140.1164  141.6115  168.2722 C.ar    1  UNL1        0.0175
     31 C         140.9067  142.5150  169.1716 C.ar    1  UNL1        0.0053
     32 C         142.3702  142.2662  169.3864 C.ar    1  UNL1        0.0715
     33 C         143.0434  141.1138  168.7017 C.ar    1  UNL1        0.0053
     34 C         142.2531  140.2103  167.8023 C.ar    1  UNL1        0.0175
     35 C         143.1605  143.1697  170.2859 C.3     1  UNL1        0.4186
     36 F         143.9510  144.0731  171.1853 F       1  UNL1       -0.1659
     37 F         141.9777  144.0841  170.4066 F       1  UNL1       -0.1659
     38 F         144.3435  142.2551  170.1651 F       1  UNL1       -0.1659
@<TRIPOS>BOND
     1     8     9    2
     2     9     7    1
     3     7     1    1
     4     1     2    1
     5     2     3    1
     6     3     4    1
     7     4    23    1
     8    23    24    1
     9    24    25   ar
    10    25    26   ar
    11    26    27   ar
    12    27    29    1
    13    29    30   ar
    14    30    31   ar
    15    31    32   ar
    16    32    35    1
    17    35    36    1
    18    35    37    1
    19    35    38    1
    20    32    33   ar
    21    33    34   ar
    22    27    28   ar
    23     4     5    1
    24     5     6    1
    25     9    10   am
    26    10    11    1
    27    11    12    1
    28    12    13    1
    29    13    14    1
    30    14    16    1
    31    16    17    2
    32    16    18   am
    33    18    19    1
    34    19    20    1
    35    20    21    1
    36    21    22    1
    37    14    15    1
    38     6     1    1
    39    15    10    1
    40    28    24   ar
    41    22    18    1
    42    34    29   ar
@<TRIPOS>MOLECULE
*****
 38 42 0 0 0
SMALL
GASTEIGER

@<TRIPOS>ATOM
      1 C         139.1217  140.1277  158.7963 C.3     1  UNL1        0.0118
      2 C         138.0870  140.5581  159.7933 C.3     1  UNL1        0.0179
      3 C         137.9965  139.8718  161.1240 C.3     1  UNL1        0.0724
      4 N         138.9407  138.7551  161.4576 N.3     1  UNL1       -0.2689
      5 C         139.9754  138.3246  160.4606 C.3     1  UNL1        0.0724
      6 C         140.0659  139.0109  159.1299 C.3     1  UNL1        0.0179
      7 C         139.2122  140.8139  157.4655 C.3     1  UNL1        0.0854
      8 O         137.8934  142.9090  156.6772 O.2     1  UNL1       -0.2749
      9 C         139.0732  142.3050  157.3796 C.2     1  UNL1        0.2258
     10 N         140.1139  143.1921  157.9961 N.am    1  UNL1       -0.2739
     11 C         139.9749  144.6831  157.9102 C.3     1  UNL1        0.1255
     12 C         141.0156  145.5701  158.5267 C.3     1  UNL1        0.1642
     13 O         142.1953  144.9661  159.2291 O.3     1  UNL1       -0.3436
     14 C         142.3343  143.4751  159.3150 C.3     1  UNL1        0.2107
     15 C         141.2936  142.5881  158.6985 C.3     1  UNL1        0.1324
     16 C         143.5141  142.8710  160.0174 C.2     1  UNL1        0.2546
     17 O         144.4860  142.0202  159.2550 O.2     1  UNL1       -0.2722
     18 N         143.7219  143.1179  161.4822 N.am    1  UNL1       -0.2775
     19 C         144.8491  142.5834  162.3152 C.3     1  UNL1        0.0935
     20 C         144.6629  143.0777  163.7191 C.3     1  UNL1        0.0233
     21 C         143.4205  143.9177  163.7538 C.3     1  UNL1        0.0233
     22 C         142.8390  143.9425  162.3713 C.3     1  UNL1        0.0935
     23 C         138.8502  138.0688  162.7884 C.3     1  UNL1        0.1007
     24 C         139.9246  138.2769  163.8142 C.ar    1  UNL1        0.0129
     25 C         141.0977  137.3744  164.0578 C.ar    1  UNL1        0.0176
     26 C         141.9127  137.9637  165.1706 C.ar    1  UNL1        0.0799
     27 N         141.2434  139.2305  165.6149 N.ar    1  UNL1       -0.3038
     28 C         140.0147  139.4240  164.7765 C.ar    1  UNL1        0.0772
     29 C         141.7192  140.1433  166.7058 C.ar    1  UNL1        0.0640
     30 C         142.5284  141.3598  166.3663 C.ar    1  UNL1        0.0175
     31 C         143.0042  142.2726  167.4572 C.ar    1  UNL1        0.0053
     32 C         142.6707  141.9691  168.8878 C.ar    1  UNL1        0.0715
     33 C         141.8615  140.7526  169.2274 C.ar    1  UNL1        0.0053
     34 C         141.3857  139.8398  168.1365 C.ar    1  UNL1        0.0175
     35 C         143.1465  142.8820  169.9787 C.3     1  UNL1        0.4186
     36 F         143.6224  143.7948  171.0698 F       1  UNL1       -0.1659
     37 F         141.8189  143.5799  169.9738 F       1  UNL1       -0.1659
     38 F         144.4743  142.1840  169.9838 F       1  UNL1       -0.1659
@<TRIPOS>BOND
     1     8     9    2
     2     9     7    1
     3     7     1    1
     4     1     2    1
     5     2     3    1
     6     3     4    1
     7     4    23    1
     8    23    24    1
     9    24    25   ar
    10    25    26   ar
    11    26    27   ar
    12    27    29    1
    13    29    30   ar
    14    30    31   ar
    15    31    32   ar
    16    32    35    1
    17    35    36    1
    18    35    37    1
    19    35    38    1
    20    32    33   ar
    21    33    34   ar
    22    27    28   ar
    23     4     5    1
    24     5     6    1
    25     9    10   am
    26    10    11    1
    27    11    12    1
    28    12    13    1
    29    13    14    1
    30    14    16    1
    31    16    17    2
    32    16    18   am
    33    18    19    1
    34    19    20    1
    35    20    21    1
    36    21    22    1
    37    14    15    1
    38     6     1    1
    39    15    10    1
    40    28    24   ar
    41    22    18    1
    42    34    29   ar
@<TRIPOS>MOLECULE
*****
 38 42 0 0 0
SMALL
GASTEIGER

@<TRIPOS>ATOM
      1 C         138.7201  140.2123  159.8175 C.3     1  UNL1        0.0118
      2 C         139.1920  141.6306  159.6927 C.3     1  UNL1        0.0179
      3 C         138.7865  142.6488  160.7168 C.3     1  UNL1        0.0724
      4 N         137.9090  142.2486  161.8657 N.3     1  UNL1       -0.2689
      5 C         137.4371  140.8303  161.9905 C.3     1  UNL1        0.0724
      6 C         137.8426  139.8122  160.9664 C.3     1  UNL1        0.0179
      7 C         139.1256  139.1940  158.7934 C.3     1  UNL1        0.0854
      8 O         139.5491  139.8335  156.3111 O.2     1  UNL1       -0.2749
      9 C         140.0717  139.5729  157.6928 C.2     1  UNL1        0.2258
     10 N         141.5404  139.6911  157.9738 N.am    1  UNL1       -0.2739
     11 C         142.4865  140.0700  156.8732 C.3     1  UNL1        0.1255
     12 C         143.9552  140.1882  157.1543 C.3     1  UNL1        0.1642
     13 O         144.4777  139.9275  158.5360 O.3     1  UNL1       -0.3436
     14 C         143.5317  139.5487  159.6366 C.3     1  UNL1        0.2107
     15 C         142.0630  139.4305  159.3555 C.3     1  UNL1        0.1324
     16 C         144.0542  139.2880  161.0182 C.2     1  UNL1        0.2546
     17 O         144.1923  137.8793  161.5145 O.2     1  UNL1       -0.2722
     18 N         144.4387  140.4361  161.9036 N.am    1  UNL1       -0.2775
     19 C         144.9733  140.3312  163.3012 C.3     1  UNL1        0.0935
     20 C         145.2212  141.7210  163.8083 C.3     1  UNL1        0.0233
     21 C         144.8398  142.6848  162.7240 C.3     1  UNL1        0.0233
     22 C         144.3562  141.8907  161.5469 C.3     1  UNL1        0.0935
     23 C         137.5035  143.2669  162.8898 C.3     1  UNL1        0.1007
     24 C         138.2984  143.4181  164.1528 C.ar    1  UNL1        0.0129
     25 C         138.5497  144.7011  164.8882 C.ar    1  UNL1        0.0176
     26 C         139.3882  144.3888  166.0920 C.ar    1  UNL1        0.0799
     27 N         139.6552  142.9127  166.1007 N.ar    1  UNL1       -0.3038
     28 C         138.9817  142.3128  164.9022 C.ar    1  UNL1        0.0772
     29 C         140.4553  142.1675  167.1276 C.ar    1  UNL1        0.0640
     30 C         140.8541  142.8457  168.4046 C.ar    1  UNL1        0.0175
     31 C         141.6541  142.1004  169.4315 C.ar    1  UNL1        0.0053
     32 C         142.0554  140.6770  169.1813 C.ar    1  UNL1        0.0715
     33 C         141.6567  139.9987  167.9043 C.ar    1  UNL1        0.0053
     34 C         140.8566  140.7440  166.8774 C.ar    1  UNL1        0.0175
     35 C         142.8555  139.9318  170.2082 C.3     1  UNL1        0.4186
     36 F         143.6556  139.1866  171.2351 F       1  UNL1       -0.1659
     37 F         141.8692  138.8028  170.1573 F       1  UNL1       -0.1659
     38 F         143.8418  141.0608  170.2592 F       1  UNL1       -0.1659
@<TRIPOS>BOND
     1     8     9    2
     2     9     7    1
     3     7     1    1
     4     1     2    1
     5     2     3    1
     6     3     4    1
     7     4    23    1
     8    23    24    1
     9    24    25   ar
    10    25    26   ar
    11    26    27   ar
    12    27    29    1
    13    29    30   ar
    14    30    31   ar
    15    31    32   ar
    16    32    35    1
    17    35    36    1
    18    35    37    1
    19    35    38    1
    20    32    33   ar
    21    33    34   ar
    22    27    28   ar
    23     4     5    1
    24     5     6    1
    25     9    10   am
    26    10    11    1
    27    11    12    1
    28    12    13    1
    29    13    14    1
    30    14    16    1
    31    16    17    2
    32    16    18   am
    33    18    19    1
    34    19    20    1
    35    20    21    1
    36    21    22    1
    37    14    15    1
    38     6     1    1
    39    15    10    1
    40    28    24   ar
    41    22    18    1
    42    34    29   ar
@<TRIPOS>MOLECULE
*****
 38 42 0 0 0
SMALL
GASTEIGER

@<TRIPOS>ATOM
      1 C         138.6608  141.1416  158.0258 C.3     1  UNL1        0.0118
      2 C         137.8337  141.0904  159.2761 C.3     1  UNL1        0.0179
      3 C         138.0864  140.0231  160.2992 C.3     1  UNL1        0.0724
      4 N         139.1662  139.0070  160.0722 N.3     1  UNL1       -0.2689
      5 C         139.9933  139.0582  158.8219 C.3     1  UNL1        0.0724
      6 C         139.7406  140.1255  157.7987 C.3     1  UNL1        0.0179
      7 C         138.4082  142.2090  157.0026 C.3     1  UNL1        0.0854
      8 O         139.9301  142.6210  154.9377 O.2     1  UNL1       -0.2749
      9 C         139.5620  142.9207  156.3606 C.2     1  UNL1        0.2258
     10 N         140.3477  143.9321  157.1415 N.am    1  UNL1       -0.2739
     11 C         141.5015  144.6438  156.4996 C.3     1  UNL1        0.1255
     12 C         142.2871  145.6551  157.2805 C.3     1  UNL1        0.1642
     13 O         141.9190  145.9547  158.7034 O.3     1  UNL1       -0.3436
     14 C         140.7652  145.2430  159.3454 C.3     1  UNL1        0.2107
     15 C         139.9795  144.2317  158.5645 C.3     1  UNL1        0.1324
     16 C         140.3970  145.5427  160.7683 C.2     1  UNL1        0.2546
     17 O         139.2137  146.4139  161.0693 O.2     1  UNL1       -0.2722
     18 N         141.2122  144.9711  161.8902 N.am    1  UNL1       -0.2775
     19 C         140.9666  145.1820  163.3549 C.3     1  UNL1        0.0935
     20 C         142.0187  144.4295  164.1144 C.3     1  UNL1        0.0233
     21 C         142.9145  143.7535  163.1190 C.3     1  UNL1        0.0233
     22 C         142.4160  144.0882  161.7445 C.3     1  UNL1        0.0935
     23 C         139.4188  137.9396  161.0954 C.3     1  UNL1        0.1007
     24 C         140.1183  138.2805  162.3778 C.ar    1  UNL1        0.0129
     25 C         141.4791  137.8055  162.7931 C.ar    1  UNL1        0.0176
     26 C         141.7816  138.3877  164.1420 C.ar    1  UNL1        0.0799
     27 N         140.6077  139.2226  164.5604 N.ar    1  UNL1       -0.3038
     28 C         139.5797  139.1563  163.4701 C.ar    1  UNL1        0.0772
     29 C         140.4836  139.9890  165.8438 C.ar    1  UNL1        0.0640
     30 C         139.5496  139.5109  166.9156 C.ar    1  UNL1        0.0175
     31 C         139.4255  140.2774  168.1990 C.ar    1  UNL1        0.0053
     32 C         140.2353  141.5220  168.4105 C.ar    1  UNL1        0.0715
     33 C         141.1693  142.0003  167.3387 C.ar    1  UNL1        0.0053
     34 C         141.2935  141.2338  166.0553 C.ar    1  UNL1        0.0175
     35 C         140.1112  142.2885  169.6939 C.3     1  UNL1        0.4186
     36 F         139.9871  143.0551  170.9773 F       1  UNL1       -0.1659
     37 F         139.1431  141.2660  170.2109 F       1  UNL1       -0.1659
     38 F         141.0794  143.3110  169.1769 F       1  UNL1       -0.1659
@<TRIPOS>BOND
     1     8     9    2
     2     9     7    1
     3     7     1    1
     4     1     2    1
     5     2     3    1
     6     3     4    1
     7     4    23    1
     8    23    24    1
     9    24    25   ar
    10    25    26   ar
    11    26    27   ar
    12    27    29    1
    13    29    30   ar
    14    30    31   ar
    15    31    32   ar
    16    32    35    1
    17    35    36    1
    18    35    37    1
    19    35    38    1
    20    32    33   ar
    21    33    34   ar
    22    27    28   ar
    23     4     5    1
    24     5     6    1
    25     9    10   am
    26    10    11    1
    27    11    12    1
    28    12    13    1
    29    13    14    1
    30    14    16    1
    31    16    17    2
    32    16    18   am
    33    18    19    1
    34    19    20    1
    35    20    21    1
    36    21    22    1
    37    14    15    1
    38     6     1    1
    39    15    10    1
    40    28    24   ar
    41    22    18    1
    42    34    29   ar
@<TRIPOS>MOLECULE
*****
 38 42 0 0 0
SMALL
GASTEIGER

@<TRIPOS>ATOM
      1 C         143.5065  141.3933  159.1404 C.3     1  UNL1        0.0118
      2 C         142.3814  140.5806  158.5716 C.3     1  UNL1        0.0179
      3 C         141.8625  139.3898  159.3218 C.3     1  UNL1        0.0724
      4 N         142.4687  139.0118  160.6407 N.3     1  UNL1       -0.2689
      5 C         143.5938  139.8245  161.2095 C.3     1  UNL1        0.0724
      6 C         144.1127  141.0153  160.4594 C.3     1  UNL1        0.0179
      7 C         144.0254  142.5842  158.3903 C.3     1  UNL1        0.0854
      8 O         143.1806  143.5936  156.1504 O.2     1  UNL1       -0.2749
      9 C         143.0754  143.4713  157.6417 C.2     1  UNL1        0.2258
     10 N         142.0202  144.2362  158.3844 N.am    1  UNL1       -0.2739
     11 C         141.0702  145.1234  157.6358 C.3     1  UNL1        0.1255
     12 C         140.0151  145.8882  158.3785 C.3     1  UNL1        0.1642
     13 O         139.9099  145.7659  159.8698 O.3     1  UNL1       -0.3436
     14 C         140.8599  144.8788  160.6184 C.3     1  UNL1        0.2107
     15 C         141.9151  144.1139  159.8757 C.3     1  UNL1        0.1324
     16 C         140.7548  144.7565  162.1097 C.2     1  UNL1        0.2546
     17 O         141.7861  145.3986  162.9895 O.2     1  UNL1       -0.2722
     18 N         139.6183  143.9921  162.7213 N.am    1  UNL1       -0.2775
     19 C         139.3829  143.7855  164.1882 C.3     1  UNL1        0.0935
     20 C         138.1368  142.9658  164.3469 C.3     1  UNL1        0.0233
     21 C         137.6020  142.6657  162.9779 C.3     1  UNL1        0.0233
     22 C         138.5177  143.2999  161.9733 C.3     1  UNL1        0.0935
     23 C         141.9498  137.8209  161.3909 C.3     1  UNL1        0.1007
     24 C         141.1551  138.0145  162.6483 C.ar    1  UNL1        0.0129
     25 C         139.7524  137.5397  162.8867 C.ar    1  UNL1        0.0176
     26 C         139.3541  137.9487  164.2738 C.ar    1  UNL1        0.0799
     27 N         140.5106  138.6763  164.8927 N.ar    1  UNL1       -0.3038
     28 C         141.6237  138.7170  163.8880 C.ar    1  UNL1        0.0772
     29 C         140.5475  139.2606  166.2737 C.ar    1  UNL1        0.0640
     30 C         141.8645  139.5251  166.9412 C.ar    1  UNL1        0.0175
     31 C         141.9014  140.1094  168.3222 C.ar    1  UNL1        0.0053
     32 C         140.6214  140.4292  169.0357 C.ar    1  UNL1        0.0715
     33 C         139.3044  140.1647  168.3682 C.ar    1  UNL1        0.0053
     34 C         139.2675  139.5804  166.9872 C.ar    1  UNL1        0.0175
     35 C         140.6583  141.0135  170.4167 C.3     1  UNL1        0.4186
     36 F         140.6951  141.5978  171.7977 F       1  UNL1       -0.1659
     37 F         142.0929  140.5976  170.5543 F       1  UNL1       -0.1659
     38 F         139.2236  141.4294  170.2791 F       1  UNL1       -0.1659
@<TRIPOS>BOND
     1     8     9    2
     2     9     7    1
     3     7     1    1
     4     1     2    1
     5     2     3    1
     6     3     4    1
     7     4    23    1
     8    23    24    1
     9    24    25   ar
    10    25    26   ar
    11    26    27   ar
    12    27    29    1
    13    29    30   ar
    14    30    31   ar
    15    31    32   ar
    16    32    35    1
    17    35    36    1
    18    35    37    1
    19    35    38    1
    20    32    33   ar
    21    33    34   ar
    22    27    28   ar
    23     4     5    1
    24     5     6    1
    25     9    10   am
    26    10    11    1
    27    11    12    1
    28    12    13    1
    29    13    14    1
    30    14    16    1
    31    16    17    2
    32    16    18   am
    33    18    19    1
    34    19    20    1
    35    20    21    1
    36    21    22    1
    37    14    15    1
    38     6     1    1
    39    15    10    1
    40    28    24   ar
    41    22    18    1
    42    34    29   ar
@<TRIPOS>MOLECULE
*****
 38 42 0 0 0
SMALL
GASTEIGER

@<TRIPOS>ATOM
      1 C         143.2371  142.6599  158.0280 C.3     1  UNL1        0.0118
      2 C         144.5196  142.1679  158.6306 C.3     1  UNL1        0.0179
      3 C         144.8907  142.5620  160.0295 C.3     1  UNL1        0.0724
      4 N         143.9792  143.4481  160.8258 N.3     1  UNL1       -0.2689
      5 C         142.6967  143.9400  160.2233 C.3     1  UNL1        0.0724
      6 C         142.3257  143.5459  158.8244 C.3     1  UNL1        0.0179
      7 C         142.8660  142.2658  156.6291 C.3     1  UNL1        0.0854
      8 O         144.1877  140.4758  155.2877 O.2     1  UNL1       -0.2749
      9 C         143.0392  140.8454  156.1790 C.2     1  UNL1        0.2258
     10 N         142.0639  139.7946  156.6203 N.am    1  UNL1       -0.2739
     11 C         142.2371  138.3743  156.1703 C.3     1  UNL1        0.1255
     12 C         141.2618  137.3236  156.6116 C.3     1  UNL1        0.1642
     13 O         140.1133  137.6932  157.5029 O.3     1  UNL1       -0.3436
     14 C         139.9401  139.1135  157.9529 C.3     1  UNL1        0.2107
     15 C         140.9154  140.1643  157.5116 C.3     1  UNL1        0.1324
     16 C         138.7917  139.4832  158.8442 C.2     1  UNL1        0.2546
     17 O         137.6543  140.2977  158.3031 O.2     1  UNL1       -0.2722
     18 N         138.7806  139.0382  160.2766 N.am    1  UNL1       -0.2775
     19 C         137.7064  139.3298  161.2821 C.3     1  UNL1        0.0935
     20 C         138.1036  138.6954  162.5820 C.3     1  UNL1        0.0233
     21 C         139.4234  138.0117  162.3798 C.3     1  UNL1        0.0233
     22 C         139.8417  138.2236  160.9550 C.3     1  UNL1        0.0935
     23 C         144.3503  143.8421  162.2248 C.3     1  UNL1        0.1007
     24 C         143.8192  143.0610  163.3899 C.ar    1  UNL1        0.0129
     25 C         144.4405  142.9781  164.7526 C.ar    1  UNL1        0.0176
     26 C         143.5788  142.0914  165.6019 C.ar    1  UNL1        0.0799
     27 N         142.4248  141.6263  164.7640 N.ar    1  UNL1       -0.3038
     28 C         142.5734  142.2255  163.3970 C.ar    1  UNL1        0.0772
     29 C         141.3168  140.7209  165.2142 C.ar    1  UNL1        0.0640
     30 C         141.5196  139.2348  165.2235 C.ar    1  UNL1        0.0175
     31 C         140.4116  138.3294  165.6737 C.ar    1  UNL1        0.0053
     32 C         139.1008  138.9102  166.1145 C.ar    1  UNL1        0.0715
     33 C         138.8979  140.3964  166.1051 C.ar    1  UNL1        0.0053
     34 C         140.0059  141.3018  165.6550 C.ar    1  UNL1        0.0175
     35 C         137.9928  138.0049  166.5646 C.3     1  UNL1        0.4186
     36 F         136.8848  137.0996  167.0149 F       1  UNL1       -0.1659
     37 F         138.3982  136.9953  165.5320 F       1  UNL1       -0.1659
     38 F         137.5874  139.0145  167.5974 F       1  UNL1       -0.1659
@<TRIPOS>BOND
     1     8     9    2
     2     9     7    1
     3     7     1    1
     4     1     2    1
     5     2     3    1
     6     3     4    1
     7     4    23    1
     8    23    24    1
     9    24    25   ar
    10    25    26   ar
    11    26    27   ar
    12    27    29    1
    13    29    30   ar
    14    30    31   ar
    15    31    32   ar
    16    32    35    1
    17    35    36    1
    18    35    37    1
    19    35    38    1
    20    32    33   ar
    21    33    34   ar
    22    27    28   ar
    23     4     5    1
    24     5     6    1
    25     9    10   am
    26    10    11    1
    27    11    12    1
    28    12    13    1
    29    13    14    1
    30    14    16    1
    31    16    17    2
    32    16    18   am
    33    18    19    1
    34    19    20    1
    35    20    21    1
    36    21    22    1
    37    14    15    1
    38     6     1    1
    39    15    10    1
    40    28    24   ar
    41    22    18    1
    42    34    29   ar
@<TRIPOS>MOLECULE
*****
 38 42 0 0 0
SMALL
GASTEIGER

@<TRIPOS>ATOM
      1 C         142.9032  139.5350  159.4521 C.3     1  UNL1        0.0118
      2 C         143.5617  138.9627  160.6722 C.3     1  UNL1        0.0179
      3 C         142.7342  138.2796  161.7204 C.3     1  UNL1        0.0724
      4 N         141.2482  138.1688  161.5484 N.3     1  UNL1       -0.2689
      5 C         140.5897  138.7411  160.3282 C.3     1  UNL1        0.0724
      6 C         141.4172  139.4242  159.2801 C.3     1  UNL1        0.0179
      7 C         143.7306  140.2181  158.4038 C.3     1  UNL1        0.0854
      8 O         143.0040  141.2904  156.1517 O.2     1  UNL1       -0.2749
      9 C         143.1649  141.3787  157.6404 C.2     1  UNL1        0.2258
     10 N         142.7602  142.6278  158.3657 N.am    1  UNL1       -0.2739
     11 C         142.1945  143.7885  157.6023 C.3     1  UNL1        0.1255
     12 C         141.7898  145.0375  158.3276 C.3     1  UNL1        0.1642
     13 O         141.9508  145.1259  159.8163 O.3     1  UNL1       -0.3436
     14 C         142.5164  143.9652  160.5797 C.3     1  UNL1        0.2107
     15 C         142.9211  142.7162  159.8544 C.3     1  UNL1        0.1324
     16 C         142.6774  144.0536  162.0685 C.2     1  UNL1        0.2546
     17 O         141.7738  144.9439  162.8690 O.2     1  UNL1       -0.2722
     18 N         143.7419  143.2517  162.7567 N.am    1  UNL1       -0.2775
     19 C         144.0208  143.2374  164.2305 C.3     1  UNL1        0.0935
     20 C         145.1657  142.3001  164.4766 C.3     1  UNL1        0.0233
     21 C         145.5945  141.7351  163.1548 C.3     1  UNL1        0.0233
     22 C         144.7145  142.3232  162.0919 C.3     1  UNL1        0.0935
     23 C         140.4208  137.4857  162.5966 C.3     1  UNL1        0.1007
     24 C         140.1550  138.1688  163.9053 C.ar    1  UNL1        0.0129
     25 C         138.8758  138.1106  164.6864 C.ar    1  UNL1        0.0176
     26 C         139.0520  138.9359  165.9265 C.ar    1  UNL1        0.0799
     27 N         140.4401  139.5042  165.9118 N.ar    1  UNL1       -0.3038
     28 C         141.1218  139.0301  164.6626 C.ar    1  UNL1        0.0772
     29 C         141.0410  140.3909  166.9619 C.ar    1  UNL1        0.0640
     30 C         140.2013  140.8712  168.1082 C.ar    1  UNL1        0.0175
     31 C         140.8022  141.7578  169.1583 C.ar    1  UNL1        0.0053
     32 C         142.2428  142.1643  169.0620 C.ar    1  UNL1        0.0715
     33 C         143.0826  141.6841  167.9157 C.ar    1  UNL1        0.0053
     34 C         142.4817  140.7974  166.8656 C.ar    1  UNL1        0.0175
     35 C         142.8437  143.0510  170.1121 C.3     1  UNL1        0.4186
     36 F         143.4445  143.9378  171.1622 F       1  UNL1       -0.1659
     37 F         144.1252  142.2755  170.0336 F       1  UNL1       -0.1659
     38 F         141.5621  143.8266  170.1906 F       1  UNL1       -0.1659
@<TRIPOS>BOND
     1     8     9    2
     2     9     7    1
     3     7     1    1
     4     1     2    1
     5     2     3    1
     6     3     4    1
     7     4    23    1
     8    23    24    1
     9    24    25   ar
    10    25    26   ar
    11    26    27   ar
    12    27    29    1
    13    29    30   ar
    14    30    31   ar
    15    31    32   ar
    16    32    35    1
    17    35    36    1
    18    35    37    1
    19    35    38    1
    20    32    33   ar
    21    33    34   ar
    22    27    28   ar
    23     4     5    1
    24     5     6    1
    25     9    10   am
    26    10    11    1
    27    11    12    1
    28    12    13    1
    29    13    14    1
    30    14    16    1
    31    16    17    2
    32    16    18   am
    33    18    19    1
    34    19    20    1
    35    20    21    1
    36    21    22    1
    37    14    15    1
    38     6     1    1
    39    15    10    1
    40    28    24   ar
    41    22    18    1
    42    34    29   ar
