@<TRIPOS>MOLECULE
*****
 35 39 0 0 0
SMALL
GASTEIGER

@<TRIPOS>ATOM
      1 N         141.7408  144.0899  161.6821 N.ar    1  UNL1       -0.1967
      2 N         142.9324  143.6673  162.4892 N.ar    1  UNL1       -0.1666
      3 C         142.4821  143.4545  163.9041 C.ar    1  UNL1        0.0850
      4 C         141.0121  143.7457  163.9714 C.ar    1  UNL1        0.0334
      5 C         140.0316  143.7040  165.1058 C.ar    1  UNL1        0.0027
      6 C         138.5930  144.0550  164.8669 C.ar    1  UNL1        0.0001
      7 C         138.1348  144.4477  163.4936 C.ar    1  UNL1        0.0015
      8 C         139.1153  144.4894  162.3592 C.ar    1  UNL1        0.0193
      9 C         140.5540  144.1384  162.5982 C.ar    1  UNL1        0.0870
     10 C         141.4857  145.8749  154.4291 C.3     1  UNL1        0.0137
     11 C         141.4898  145.5566  155.8950 C.3     1  UNL1        0.0932
     12 C         142.6128  144.6314  155.5305 C.3     1  UNL1        0.0137
     13 C         140.3659  146.5483  155.9529 C.2     1  UNL1        0.2302
     14 O         139.7976  147.3058  154.7897 O.2     1  UNL1       -0.2744
     15 N         139.9102  146.6495  157.3784 N.am    1  UNL1       -0.2692
     16 C         140.7523  145.7203  158.2015 C.ar    1  UNL1        0.1363
     17 N         140.7564  145.4020  159.6673 N.ar    1  UNL1       -0.1951
     18 C         141.7367  144.4083  160.2162 C.ar    1  UNL1        0.2553
     19 N         142.7130  143.7328  159.2994 N.ar    1  UNL1       -0.1957
     20 C         142.7089  144.0511  157.8336 C.ar    1  UNL1        0.1276
     21 N         143.6852  143.3756  156.9167 N.pl3   1  UNL1       -0.3427
     22 C         141.7286  145.0449  157.2846 C.ar    1  UNL1        0.0484
     23 H         139.1855  147.2248  157.7148 H       1  UNL1        0.1563
     24 H         144.3286  142.7234  157.2770 H       1  UNL1        0.1437
     25 H         143.6826  143.5845  155.9546 H       1  UNL1        0.1437
     26 C         143.3494  143.0258  165.0504 C.3     1  UNL1        0.0785
     27 C         143.3355  141.5974  165.5081 C.ar    1  UNL1        0.0410
     28 C         144.0048  140.5388  164.6826 C.ar    1  UNL1        0.1388
     29 F         144.6879  140.9085  163.3994 F       1  UNL1       -0.2044
     30 C         143.9908  139.1104  165.1403 C.ar    1  UNL1        0.0318
     31 C         143.3077  138.7407  166.4235 C.ar    1  UNL1        0.0342
     32 C         142.6385  139.7992  167.2489 C.ar    1  UNL1        0.1672
     33 F         141.9553  139.4294  168.5322 F       1  UNL1       -0.2018
     34 C         142.6523  141.2276  166.7912 C.ar    1  UNL1        0.1659
     35 F         141.9831  142.2863  167.6167 F       1  UNL1       -0.2020
@<TRIPOS>BOND
     1    10    11    1
     2    11    12    1
     3    11    13    1
     4    13    14    2
     5    13    15   am
     6    15    16    1
     7    16    17   ar
     8    17    18   ar
     9    18     1    1
    10     1     2   ar
    11     2     3   ar
    12     3    26    1
    13    26    27    1
    14    27    28   ar
    15    28    29    1
    16    28    30   ar
    17    30    31   ar
    18    31    32   ar
    19    32    33    1
    20    32    34   ar
    21    34    35    1
    22     3     4   ar
    23     4     5   ar
    24     5     6   ar
    25     6     7   ar
    26     7     8   ar
    27     8     9   ar
    28    18    19   ar
    29    19    20   ar
    30    20    21    1
    31    20    22   ar
    32    22    11    1
    33    22    16   ar
    34     9     1   ar
    35    34    27   ar
    36     9     4   ar
    37    15    23    1
    38    21    24    1
    39    21    25    1
@<TRIPOS>MOLECULE
*****
 35 39 0 0 0
SMALL
GASTEIGER

@<TRIPOS>ATOM
      1 N         141.1050  141.4402  163.4375 N.ar    1  UNL1       -0.1967
      2 N         142.0166  141.3420  164.6246 N.ar    1  UNL1       -0.1666
      3 C         141.5254  142.3021  165.6671 C.ar    1  UNL1        0.0850
      4 C         140.3101  142.9938  165.1242 C.ar    1  UNL1        0.0334
      5 C         139.4064  144.0399  165.7066 C.ar    1  UNL1        0.0027
      6 C         138.2431  144.5532  164.9111 C.ar    1  UNL1        0.0001
      7 C         137.9832  144.0205  163.5331 C.ar    1  UNL1        0.0015
      8 C         138.8868  142.9745  162.9507 C.ar    1  UNL1        0.0193
      9 C         140.0503  142.4611  163.7463 C.ar    1  UNL1        0.0870
     10 C         141.4017  137.5461  157.0653 C.3     1  UNL1        0.0137
     11 C         141.2800  138.3310  158.3378 C.3     1  UNL1        0.0932
     12 C         142.7723  138.1865  158.3849 C.3     1  UNL1        0.0137
     13 C         139.8132  138.3114  158.0247 C.2     1  UNL1        0.2302
     14 O         139.1748  137.6631  156.8322 O.2     1  UNL1       -0.2744
     15 N         139.0969  139.0539  159.1135 N.am    1  UNL1       -0.2692
     16 C         140.1210  139.5324  160.0996 C.ar    1  UNL1        0.1363
     17 N         139.9992  140.3173  161.3720 N.ar    1  UNL1       -0.1951
     18 C         141.2267  140.6553  162.1650 C.ar    1  UNL1        0.2553
     19 N         142.5760  140.2085  161.6856 N.ar    1  UNL1       -0.1957
     20 C         142.6977  139.4237  160.4132 C.ar    1  UNL1        0.1276
     21 N         144.0470  138.9768  159.9338 N.pl3   1  UNL1       -0.3427
     22 C         141.4702  139.0856  159.6201 C.ar    1  UNL1        0.0484
     23 H         138.1252  139.2013  159.1709 H       1  UNL1        0.1563
     24 H         144.8527  139.1987  160.4543 H       1  UNL1        0.1437
     25 H         144.1269  138.4617  159.0986 H       1  UNL1        0.1437
     26 C         142.1412  142.5305  167.0156 C.3     1  UNL1        0.0785
     27 C         141.6194  141.7931  168.2130 C.ar    1  UNL1        0.0410
     28 C         140.5685  142.4199  169.0807 C.ar    1  UNL1        0.1388
     29 F         140.0395  143.7842  168.7509 F       1  UNL1       -0.2044
     30 C         140.0468  141.6824  170.2780 C.ar    1  UNL1        0.0318
     31 C         140.5758  140.3181  170.6078 C.ar    1  UNL1        0.0342
     32 C         141.6267  139.6913  169.7403 C.ar    1  UNL1        0.1672
     33 F         142.1557  138.3270  170.0701 F       1  UNL1       -0.2018
     34 C         142.1485  140.4288  168.5428 C.ar    1  UNL1        0.1659
     35 F         143.1994  139.8020  167.6752 F       1  UNL1       -0.2020
@<TRIPOS>BOND
     1    10    11    1
     2    11    12    1
     3    11    13    1
     4    13    14    2
     5    13    15   am
     6    15    16    1
     7    16    17   ar
     8    17    18   ar
     9    18     1    1
    10     1     2   ar
    11     2     3   ar
    12     3    26    1
    13    26    27    1
    14    27    28   ar
    15    28    29    1
    16    28    30   ar
    17    30    31   ar
    18    31    32   ar
    19    32    33    1
    20    32    34   ar
    21    34    35    1
    22     3     4   ar
    23     4     5   ar
    24     5     6   ar
    25     6     7   ar
    26     7     8   ar
    27     8     9   ar
    28    18    19   ar
    29    19    20   ar
    30    20    21    1
    31    20    22   ar
    32    22    11    1
    33    22    16   ar
    34     9     1   ar
    35    34    27   ar
    36     9     4   ar
    37    15    23    1
    38    21    24    1
    39    21    25    1
@<TRIPOS>MOLECULE
*****
 35 39 0 0 0
SMALL
GASTEIGER

@<TRIPOS>ATOM
      1 N         141.4080  141.1893  163.3287 N.ar    1  UNL1       -0.1967
      2 N         142.1325  141.4088  164.6237 N.ar    1  UNL1       -0.1666
      3 C         141.6829  140.3542  165.5910 C.ar    1  UNL1        0.0850
      4 C         140.6804  139.4829  164.8939 C.ar    1  UNL1        0.0334
      5 C         139.9003  138.2863  165.3515 C.ar    1  UNL1        0.0027
      6 C         138.9504  137.6058  164.4112 C.ar    1  UNL1        0.0001
      7 C         138.7804  138.1219  163.0130 C.ar    1  UNL1        0.0015
      8 C         139.5605  139.3185  162.5553 C.ar    1  UNL1        0.0193
      9 C         140.5105  139.9990  163.4957 C.ar    1  UNL1        0.0870
     10 C         141.8751  145.4494  157.2058 C.3     1  UNL1        0.0137
     11 C         141.7280  144.6236  158.4494 C.3     1  UNL1        0.0932
     12 C         143.0122  143.9955  157.9952 C.3     1  UNL1        0.0137
     13 C         140.4746  145.4243  158.6436 C.2     1  UNL1        0.2302
     14 O         139.9641  146.4986  157.7297 O.2     1  UNL1       -0.2744
     15 N         139.8212  144.9621  159.9123 N.am    1  UNL1       -0.2692
     16 C         140.6709  143.8757  160.5022 C.ar    1  UNL1        0.1363
     17 N         140.5238  143.0500  161.7457 N.ar    1  UNL1       -0.1951
     18 C         141.5551  142.0151  162.0851 C.ar    1  UNL1        0.2553
     19 N         142.7336  141.8059  161.1810 N.ar    1  UNL1       -0.1957
     20 C         142.8807  142.6316  159.9375 C.ar    1  UNL1        0.1276
     21 N         144.0592  142.4224  159.0333 N.pl3   1  UNL1       -0.3427
     22 C         141.8494  143.6665  159.5980 C.ar    1  UNL1        0.0484
     23 H         138.9821  145.3105  160.2913 H       1  UNL1        0.1563
     24 H         144.7361  141.7431  159.2561 H       1  UNL1        0.1437
     25 H         144.1557  142.9644  158.2171 H       1  UNL1        0.1437
     26 C         142.1531  140.1983  167.0068 C.3     1  UNL1        0.0785
     27 C         141.5550  141.0423  168.0930 C.ar    1  UNL1        0.0410
     28 C         142.2892  142.2504  168.5943 C.ar    1  UNL1        0.1388
     29 F         143.6216  142.6146  168.0095 F       1  UNL1       -0.2044
     30 C         141.6910  143.0944  169.6805 C.ar    1  UNL1        0.0318
     31 C         140.3586  142.7302  170.2653 C.ar    1  UNL1        0.0342
     32 C         139.6244  141.5221  169.7640 C.ar    1  UNL1        0.1672
     33 F         138.2919  141.1580  170.3490 F       1  UNL1       -0.2018
     34 C         140.2226  140.6781  168.6779 C.ar    1  UNL1        0.1659
     35 F         139.4883  139.4700  168.1765 F       1  UNL1       -0.2020
@<TRIPOS>BOND
     1    10    11    1
     2    11    12    1
     3    11    13    1
     4    13    14    2
     5    13    15   am
     6    15    16    1
     7    16    17   ar
     8    17    18   ar
     9    18     1    1
    10     1     2   ar
    11     2     3   ar
    12     3    26    1
    13    26    27    1
    14    27    28   ar
    15    28    29    1
    16    28    30   ar
    17    30    31   ar
    18    31    32   ar
    19    32    33    1
    20    32    34   ar
    21    34    35    1
    22     3     4   ar
    23     4     5   ar
    24     5     6   ar
    25     6     7   ar
    26     7     8   ar
    27     8     9   ar
    28    18    19   ar
    29    19    20   ar
    30    20    21    1
    31    20    22   ar
    32    22    11    1
    33    22    16   ar
    34     9     1   ar
    35    34    27   ar
    36     9     4   ar
    37    15    23    1
    38    21    24    1
    39    21    25    1
@<TRIPOS>MOLECULE
*****
 35 39 0 0 0
SMALL
GASTEIGER

@<TRIPOS>ATOM
      1 N         141.0209  143.7984  161.8184 N.ar    1  UNL1       -0.1967
      2 N         139.9250  143.7745  162.8424 N.ar    1  UNL1       -0.1666
      3 C         140.5337  143.4117  164.1644 C.ar    1  UNL1        0.0850
      4 C         142.0059  143.2113  163.9575 C.ar    1  UNL1        0.0334
      5 C         143.1111  142.8421  164.9020 C.ar    1  UNL1        0.0027
      6 C         144.5173  142.7118  164.3967 C.ar    1  UNL1        0.0001
      7 C         144.8184  142.9508  162.9467 C.ar    1  UNL1        0.0015
      8 C         143.7132  143.3200  162.0022 C.ar    1  UNL1        0.0193
      9 C         142.3069  143.4503  162.5076 C.ar    1  UNL1        0.0870
     10 C         139.9731  145.1780  154.5482 C.3     1  UNL1        0.0137
     11 C         140.1349  144.8616  156.0055 C.3     1  UNL1        0.0932
     12 C         141.2779  145.8297  155.9275 C.3     1  UNL1        0.0137
     13 C         138.9580  143.9596  155.7789 C.2     1  UNL1        0.2302
     14 O         138.2347  143.7635  154.4795 O.2     1  UNL1       -0.2744
     15 N         138.6314  143.2882  157.0799 N.am    1  UNL1       -0.2692
     16 C         139.6064  143.7751  158.1105 C.ar    1  UNL1        0.1363
     17 N         139.7681  143.4587  159.5678 N.ar    1  UNL1       -0.1951
     18 C         140.8591  144.1148  160.3611 C.ar    1  UNL1        0.2553
     19 N         141.7883  145.0872  159.6971 N.ar    1  UNL1       -0.1957
     20 C         141.6266  145.4036  158.2398 C.ar    1  UNL1        0.1276
     21 N         142.5558  146.3761  157.5758 N.pl3   1  UNL1       -0.3427
     22 C         140.5356  144.7476  157.4465 C.ar    1  UNL1        0.0484
     23 H         137.9047  142.6414  157.2308 H       1  UNL1        0.1563
     24 H         143.2719  146.8067  158.0965 H       1  UNL1        0.1437
     25 H         142.4496  146.5838  156.6193 H       1  UNL1        0.1437
     26 C         139.7993  143.2736  165.4650 C.3     1  UNL1        0.0785
     27 C         139.4692  141.9112  165.9988 C.ar    1  UNL1        0.0410
     28 C         138.5095  141.0277  165.2582 C.ar    1  UNL1        0.1388
     29 F         137.8799  141.5067  163.9837 F       1  UNL1       -0.2044
     30 C         138.1794  139.6655  165.7920 C.ar    1  UNL1        0.0318
     31 C         138.8090  139.1865  167.0665 C.ar    1  UNL1        0.0342
     32 C         139.7686  140.0699  167.8071 C.ar    1  UNL1        0.1672
     33 F         140.3982  139.5909  169.0816 F       1  UNL1       -0.2018
     34 C         140.0987  141.4323  167.2733 C.ar    1  UNL1        0.1659
     35 F         141.0584  142.3157  168.0139 F       1  UNL1       -0.2020
@<TRIPOS>BOND
     1    10    11    1
     2    11    12    1
     3    11    13    1
     4    13    14    2
     5    13    15   am
     6    15    16    1
     7    16    17   ar
     8    17    18   ar
     9    18     1    1
    10     1     2   ar
    11     2     3   ar
    12     3    26    1
    13    26    27    1
    14    27    28   ar
    15    28    29    1
    16    28    30   ar
    17    30    31   ar
    18    31    32   ar
    19    32    33    1
    20    32    34   ar
    21    34    35    1
    22     3     4   ar
    23     4     5   ar
    24     5     6   ar
    25     6     7   ar
    26     7     8   ar
    27     8     9   ar
    28    18    19   ar
    29    19    20   ar
    30    20    21    1
    31    20    22   ar
    32    22    11    1
    33    22    16   ar
    34     9     1   ar
    35    34    27   ar
    36     9     4   ar
    37    15    23    1
    38    21    24    1
    39    21    25    1
@<TRIPOS>MOLECULE
*****
 35 39 0 0 0
SMALL
GASTEIGER

@<TRIPOS>ATOM
      1 N         141.8035  144.0249  161.7232 N.ar    1  UNL1       -0.1967
      2 N         142.9746  143.5958  162.5566 N.ar    1  UNL1       -0.1666
      3 C         142.4975  143.4121  163.9668 C.ar    1  UNL1        0.0850
      4 C         141.0315  143.7277  164.0049 C.ar    1  UNL1        0.0334
      5 C         140.0317  143.7191  165.1231 C.ar    1  UNL1        0.0027
      6 C         138.6032  144.0892  164.8547 C.ar    1  UNL1        0.0001
      7 C         138.1742  144.4680  163.4681 C.ar    1  UNL1        0.0015
      8 C         139.1740  144.4765  162.3499 C.ar    1  UNL1        0.0193
      9 C         140.6026  144.1064  162.6183 C.ar    1  UNL1        0.0870
     10 C         142.1584  145.2877  154.3655 C.3     1  UNL1        0.0137
     11 C         142.1329  144.9921  155.8359 C.3     1  UNL1        0.0932
     12 C         141.0432  146.0224  155.8643 C.3     1  UNL1        0.0137
     13 C         143.2280  144.0236  155.5000 C.2     1  UNL1        0.2302
     14 O         143.7992  143.7772  154.1351 O.2     1  UNL1       -0.2744
     15 N         143.6516  143.3448  156.7688 N.am    1  UNL1       -0.2692
     16 C         142.8183  143.8937  157.8888 C.ar    1  UNL1        0.1363
     17 N         142.7929  143.5981  159.3591 N.ar    1  UNL1       -0.1951
     18 C         141.8289  144.3205  160.2528 C.ar    1  UNL1        0.2553
     19 N         140.8903  145.3386  159.6762 N.ar    1  UNL1       -0.1957
     20 C         140.9157  145.6343  158.2059 C.ar    1  UNL1        0.1276
     21 N         139.9771  146.6524  157.6293 N.pl3   1  UNL1       -0.3427
     22 C         141.8797  144.9118  157.3122 C.ar    1  UNL1        0.0484
     23 H         144.3533  142.6593  156.8519 H       1  UNL1        0.1563
     24 H         139.3444  147.1266  158.2159 H       1  UNL1        0.1437
     25 H         139.9938  146.8465  156.6642 H       1  UNL1        0.1437
     26 C         143.3386  142.9874  165.1339 C.3     1  UNL1        0.0785
     27 C         143.3226  141.5583  165.5893 C.ar    1  UNL1        0.0410
     28 C         143.9859  140.4993  164.7594 C.ar    1  UNL1        0.1388
     29 F         144.6651  140.8694  163.4743 F       1  UNL1       -0.2044
     30 C         143.9700  139.0703  165.2148 C.ar    1  UNL1        0.0318
     31 C         143.2908  138.7002  166.5000 C.ar    1  UNL1        0.0342
     32 C         142.6275  139.7591  167.3298 C.ar    1  UNL1        0.1672
     33 F         141.9483  139.3889  168.6150 F       1  UNL1       -0.2018
     34 C         142.6434  141.1882  166.8744 C.ar    1  UNL1        0.1659
     35 F         141.9801  142.2472  167.7042 F       1  UNL1       -0.2020
@<TRIPOS>BOND
     1    10    11    1
     2    11    12    1
     3    11    13    1
     4    13    14    2
     5    13    15   am
     6    15    16    1
     7    16    17   ar
     8    17    18   ar
     9    18     1    1
    10     1     2   ar
    11     2     3   ar
    12     3    26    1
    13    26    27    1
    14    27    28   ar
    15    28    29    1
    16    28    30   ar
    17    30    31   ar
    18    31    32   ar
    19    32    33    1
    20    32    34   ar
    21    34    35    1
    22     3     4   ar
    23     4     5   ar
    24     5     6   ar
    25     6     7   ar
    26     7     8   ar
    27     8     9   ar
    28    18    19   ar
    29    19    20   ar
    30    20    21    1
    31    20    22   ar
    32    22    11    1
    33    22    16   ar
    34     9     1   ar
    35    34    27   ar
    36     9     4   ar
    37    15    23    1
    38    21    24    1
    39    21    25    1
@<TRIPOS>MOLECULE
*****
 35 39 0 0 0
SMALL
GASTEIGER

@<TRIPOS>ATOM
      1 N         141.1394  141.1510  163.4309 N.ar    1  UNL1       -0.1967
      2 N         141.1259  142.0702  164.6162 N.ar    1  UNL1       -0.1666
      3 C         140.3750  141.3897  165.7221 C.ar    1  UNL1        0.0850
      4 C         139.9244  140.0498  165.2203 C.ar    1  UNL1        0.0334
      5 C         139.1450  138.9450  165.8698 C.ar    1  UNL1        0.0027
      6 C         138.8380  137.6928  165.1034 C.ar    1  UNL1        0.0001
      7 C         139.3104  137.5452  163.6873 C.ar    1  UNL1        0.0015
      8 C         140.0898  138.6500  163.0378 C.ar    1  UNL1        0.0193
      9 C         140.3968  139.9023  163.8043 C.ar    1  UNL1        0.0870
     10 C         144.4406  142.2511  156.8166 C.3     1  UNL1        0.0137
     11 C         143.7975  141.9708  158.1425 C.3     1  UNL1        0.0932
     12 C         143.3881  143.4121  158.0712 C.3     1  UNL1        0.0137
     13 C         144.3413  140.5881  157.9366 C.2     1  UNL1        0.2302
     14 O         145.1379  140.1210  156.7545 O.2     1  UNL1       -0.2744
     15 N         143.9487  139.7546  159.1203 N.am    1  UNL1       -0.2692
     16 C         143.1622  140.6222  160.0577 C.ar    1  UNL1        0.1363
     17 N         142.5191  140.3419  161.3835 N.ar    1  UNL1       -0.1951
     18 C         141.7825  141.4313  162.1050 C.ar    1  UNL1        0.2553
     19 N         141.6890  142.8010  161.5007 N.ar    1  UNL1       -0.1957
     20 C         142.3322  143.0813  160.1749 C.ar    1  UNL1        0.1276
     21 N         142.2387  144.4510  159.5706 N.pl3   1  UNL1       -0.3427
     22 C         143.0687  141.9919  159.4534 C.ar    1  UNL1        0.0484
     23 H         144.1687  138.8049  159.2577 H       1  UNL1        0.1563
     24 H         141.7552  145.1660  160.0442 H       1  UNL1        0.1437
     25 H         142.6608  144.6349  158.7004 H       1  UNL1        0.1437
     26 C         140.1196  141.9505  167.0896 C.3     1  UNL1        0.0785
     27 C         140.8645  141.4089  168.2735 C.ar    1  UNL1        0.0410
     28 C         140.2089  140.4082  169.1785 C.ar    1  UNL1        0.1388
     29 F         138.8084  139.9493  168.8996 F       1  UNL1       -0.2044
     30 C         140.9539  139.8666  170.3623 C.ar    1  UNL1        0.0318
     31 C         142.3545  140.3255  170.6412 C.ar    1  UNL1        0.0342
     32 C         143.0100  141.3261  169.7363 C.ar    1  UNL1        0.1672
     33 F         144.4106  141.7851  170.0153 F       1  UNL1       -0.2018
     34 C         142.2651  141.8678  168.5524 C.ar    1  UNL1        0.1659
     35 F         142.9206  142.8684  167.6475 F       1  UNL1       -0.2020
@<TRIPOS>BOND
     1    10    11    1
     2    11    12    1
     3    11    13    1
     4    13    14    2
     5    13    15   am
     6    15    16    1
     7    16    17   ar
     8    17    18   ar
     9    18     1    1
    10     1     2   ar
    11     2     3   ar
    12     3    26    1
    13    26    27    1
    14    27    28   ar
    15    28    29    1
    16    28    30   ar
    17    30    31   ar
    18    31    32   ar
    19    32    33    1
    20    32    34   ar
    21    34    35    1
    22     3     4   ar
    23     4     5   ar
    24     5     6   ar
    25     6     7   ar
    26     7     8   ar
    27     8     9   ar
    28    18    19   ar
    29    19    20   ar
    30    20    21    1
    31    20    22   ar
    32    22    11    1
    33    22    16   ar
    34     9     1   ar
    35    34    27   ar
    36     9     4   ar
    37    15    23    1
    38    21    24    1
    39    21    25    1
@<TRIPOS>MOLECULE
*****
 35 39 0 0 0
SMALL
GASTEIGER

@<TRIPOS>ATOM
      1 N         142.0512  142.5540  162.9820 N.ar    1  UNL1       -0.1967
      2 N         142.7767  142.0242  164.1833 N.ar    1  UNL1       -0.1666
      3 C         141.9998  142.4173  165.4047 C.ar    1  UNL1        0.0850
      4 C         140.7941  143.1900  164.9582 C.ar    1  UNL1        0.0334
      5 C         139.6713  143.8276  165.7217 C.ar    1  UNL1        0.0027
      6 C         138.5804  144.5496  164.9879 C.ar    1  UNL1        0.0001
      7 C         138.6122  144.6341  163.4906 C.ar    1  UNL1        0.0015
      8 C         139.7349  143.9965  162.7272 C.ar    1  UNL1        0.0193
      9 C         140.8259  143.2745  163.4610 C.ar    1  UNL1        0.0870
     10 C         144.2287  141.4450  155.9190 C.3     1  UNL1        0.0137
     11 C         143.8035  141.6072  157.3483 C.3     1  UNL1        0.0932
     12 C         143.5575  143.0320  156.9489 C.3     1  UNL1        0.0137
     13 C         144.1384  140.1485  157.4489 C.2     1  UNL1        0.2302
     14 O         144.6526  139.2832  156.3368 O.2     1  UNL1       -0.2744
     15 N         143.8687  139.7072  158.8569 N.am    1  UNL1       -0.2692
     16 C         143.3671  140.8930  159.6265 C.ar    1  UNL1        0.1363
     17 N         142.9419  141.0552  161.0558 N.ar    1  UNL1       -0.1951
     18 C         142.4765  142.3917  161.5527 C.ar    1  UNL1        0.2553
     19 N         142.4362  143.5661  160.6203 N.ar    1  UNL1       -0.1957
     20 C         142.8614  143.4039  159.1910 C.ar    1  UNL1        0.1276
     21 N         142.8211  144.5782  158.2586 N.pl3   1  UNL1       -0.3427
     22 C         143.3268  142.0673  158.6941 C.ar    1  UNL1        0.0484
     23 H         143.9981  138.7986  159.2134 H       1  UNL1        0.1563
     24 H         142.5155  145.4554  158.5848 H       1  UNL1        0.1437
     25 H         143.1001  144.4717  157.3205 H       1  UNL1        0.1437
     26 C         142.3645  142.0944  166.8234 C.3     1  UNL1        0.0785
     27 C         141.3112  141.6160  167.7782 C.ar    1  UNL1        0.0410
     28 C         140.4754  140.4187  167.4347 C.ar    1  UNL1        0.1388
     29 F         140.6930  139.6997  166.1363 F       1  UNL1       -0.2044
     30 C         139.4222  139.9404  168.3895 C.ar    1  UNL1        0.0318
     31 C         139.2046  140.6594  169.6878 C.ar    1  UNL1        0.0342
     32 C         140.0403  141.8566  170.0314 C.ar    1  UNL1        0.1672
     33 F         139.8227  142.5756  171.3298 F       1  UNL1       -0.2018
     34 C         141.0936  142.3350  169.0765 C.ar    1  UNL1        0.1659
     35 F         141.9294  143.5323  169.4201 F       1  UNL1       -0.2020
@<TRIPOS>BOND
     1    10    11    1
     2    11    12    1
     3    11    13    1
     4    13    14    2
     5    13    15   am
     6    15    16    1
     7    16    17   ar
     8    17    18   ar
     9    18     1    1
    10     1     2   ar
    11     2     3   ar
    12     3    26    1
    13    26    27    1
    14    27    28   ar
    15    28    29    1
    16    28    30   ar
    17    30    31   ar
    18    31    32   ar
    19    32    33    1
    20    32    34   ar
    21    34    35    1
    22     3     4   ar
    23     4     5   ar
    24     5     6   ar
    25     6     7   ar
    26     7     8   ar
    27     8     9   ar
    28    18    19   ar
    29    19    20   ar
    30    20    21    1
    31    20    22   ar
    32    22    11    1
    33    22    16   ar
    34     9     1   ar
    35    34    27   ar
    36     9     4   ar
    37    15    23    1
    38    21    24    1
    39    21    25    1
@<TRIPOS>MOLECULE
*****
 35 39 0 0 0
SMALL
GASTEIGER

@<TRIPOS>ATOM
      1 N         141.1937  143.8230  162.0802 N.ar    1  UNL1       -0.1967
      2 N         142.4865  143.4008  162.7129 N.ar    1  UNL1       -0.1666
      3 C         142.2586  143.2687  164.1896 C.ar    1  UNL1        0.0850
      4 C         140.8248  143.6092  164.4695 C.ar    1  UNL1        0.0334
      5 C         140.0335  143.6516  165.7431 C.ar    1  UNL1        0.0027
      6 C         138.5841  144.0366  165.7130 C.ar    1  UNL1        0.0001
      7 C         137.9259  144.3791  164.4093 C.ar    1  UNL1        0.0015
      8 C         138.7172  144.3367  163.1358 C.ar    1  UNL1        0.0193
      9 C         140.1667  143.9518  163.1659 C.ar    1  UNL1        0.0870
     10 C         139.8310  144.8626  154.8056 C.3     1  UNL1        0.0137
     11 C         140.0572  144.6131  156.2674 C.3     1  UNL1        0.0932
     12 C         141.1672  145.6087  156.1048 C.3     1  UNL1        0.0137
     13 C         138.8998  143.6696  156.1244 C.2     1  UNL1        0.2302
     14 O         138.1341  143.3983  154.8634 O.2     1  UNL1       -0.2744
     15 N         138.6428  143.0451  157.4637 N.am    1  UNL1       -0.2692
     16 C         139.6412  143.6026  158.4345 C.ar    1  UNL1        0.1363
     17 N         139.8673  143.3530  159.8962 N.ar    1  UNL1       -0.1951
     18 C         140.9675  144.0725  160.6184 C.ar    1  UNL1        0.2553
     19 N         141.8417  145.0416  159.8790 N.ar    1  UNL1       -0.1957
     20 C         141.6156  145.2912  158.4174 C.ar    1  UNL1        0.1276
     21 N         142.4898  146.2602  157.6779 N.pl3   1  UNL1       -0.3427
     22 C         140.5154  144.5717  157.6951 C.ar    1  UNL1        0.0484
     23 H         137.9418  142.3852  157.6696 H       1  UNL1        0.1563
     24 H         143.2119  146.7325  158.1520 H       1  UNL1        0.1437
     25 H         142.3414  146.4240  156.7186 H       1  UNL1        0.1437
     26 C         143.2843  142.8666  165.2075 C.3     1  UNL1        0.0785
     27 C         143.0933  141.6140  166.0103 C.ar    1  UNL1        0.0410
     28 C         142.8235  141.7010  167.4833 C.ar    1  UNL1        0.1388
     29 F         142.7447  143.0406  168.1535 F       1  UNL1       -0.2044
     30 C         142.6326  140.4484  168.2860 C.ar    1  UNL1        0.0318
     31 C         142.7114  139.1088  167.6158 C.ar    1  UNL1        0.0342
     32 C         142.9812  139.0218  166.1429 C.ar    1  UNL1        0.1672
     33 F         143.0600  137.6821  165.4727 F       1  UNL1       -0.2018
     34 C         143.1722  140.2744  165.3401 C.ar    1  UNL1        0.1659
     35 F         143.4420  140.1874  163.8671 F       1  UNL1       -0.2020
@<TRIPOS>BOND
     1    10    11    1
     2    11    12    1
     3    11    13    1
     4    13    14    2
     5    13    15   am
     6    15    16    1
     7    16    17   ar
     8    17    18   ar
     9    18     1    1
    10     1     2   ar
    11     2     3   ar
    12     3    26    1
    13    26    27    1
    14    27    28   ar
    15    28    29    1
    16    28    30   ar
    17    30    31   ar
    18    31    32   ar
    19    32    33    1
    20    32    34   ar
    21    34    35    1
    22     3     4   ar
    23     4     5   ar
    24     5     6   ar
    25     6     7   ar
    26     7     8   ar
    27     8     9   ar
    28    18    19   ar
    29    19    20   ar
    30    20    21    1
    31    20    22   ar
    32    22    11    1
    33    22    16   ar
    34     9     1   ar
    35    34    27   ar
    36     9     4   ar
    37    15    23    1
    38    21    24    1
    39    21    25    1
@<TRIPOS>MOLECULE
*****
 35 39 0 0 0
SMALL
GASTEIGER

@<TRIPOS>ATOM
      1 N         140.7735  143.9220  161.1509 N.ar    1  UNL1       -0.1967
      2 N         139.5152  143.3647  161.7474 N.ar    1  UNL1       -0.1666
      3 C         139.7875  143.0430  163.1870 C.ar    1  UNL1        0.0850
      4 C         141.2143  143.4016  163.4801 C.ar    1  UNL1        0.0334
      5 C         142.0373  143.3036  164.7303 C.ar    1  UNL1        0.0027
      6 C         143.4696  143.7488  164.7222 C.ar    1  UNL1        0.0001
      7 C         144.0790  144.2921  163.4638 C.ar    1  UNL1        0.0015
      8 C         143.2560  144.3901  162.2136 C.ar    1  UNL1        0.0193
      9 C         141.8236  143.9448  162.2218 C.ar    1  UNL1        0.0870
     10 C         141.4228  146.3902  154.1264 C.3     1  UNL1        0.0137
     11 C         141.2457  145.9355  155.5448 C.3     1  UNL1        0.0932
     12 C         142.3768  145.0048  155.2219 C.3     1  UNL1        0.0137
     13 C         140.1516  146.9613  155.5712 C.2     1  UNL1        0.2302
     14 O         139.7456  147.8469  154.4306 O.2     1  UNL1       -0.2744
     15 N         139.5347  146.9459  156.9384 N.am    1  UNL1       -0.2692
     16 C         140.2476  145.9107  157.7570 C.ar    1  UNL1        0.1363
     17 N         140.0704  145.4560  159.1754 N.ar    1  UNL1       -0.1951
     18 C         140.9507  144.3768  159.7325 C.ar    1  UNL1        0.2553
     19 N         142.0081  143.7523  158.8712 N.ar    1  UNL1       -0.1957
     20 C         142.1853  144.2070  157.4528 C.ar    1  UNL1        0.1276
     21 N         143.2428  143.5825  156.5915 N.pl3   1  UNL1       -0.3427
     22 C         141.3050  145.2862  156.8957 C.ar    1  UNL1        0.0484
     23 H         138.7923  147.5153  157.2447 H       1  UNL1        0.1563
     24 H         143.8205  142.8742  156.9572 H       1  UNL1        0.1437
     25 H         143.3590  143.8810  155.6606 H       1  UNL1        0.1437
     26 C         138.8056  142.4643  164.1622 C.3     1  UNL1        0.0785
     27 C         138.8959  141.0177  164.5483 C.ar    1  UNL1        0.0410
     28 C         139.3054  140.6370  165.9402 C.ar    1  UNL1        0.1388
     29 F         139.6246  141.7030  166.9460 F       1  UNL1       -0.2044
     30 C         139.3957  139.1904  166.3262 C.ar    1  UNL1        0.0318
     31 C         139.0765  138.1244  165.3203 C.ar    1  UNL1        0.0342
     32 C         138.6670  138.5051  163.9285 C.ar    1  UNL1        0.1672
     33 F         138.3478  137.4390  162.9226 F       1  UNL1       -0.2018
     34 C         138.5767  139.9517  163.5424 C.ar    1  UNL1        0.1659
     35 F         138.1672  140.3323  162.1505 F       1  UNL1       -0.2020
@<TRIPOS>BOND
     1    10    11    1
     2    11    12    1
     3    11    13    1
     4    13    14    2
     5    13    15   am
     6    15    16    1
     7    16    17   ar
     8    17    18   ar
     9    18     1    1
    10     1     2   ar
    11     2     3   ar
    12     3    26    1
    13    26    27    1
    14    27    28   ar
    15    28    29    1
    16    28    30   ar
    17    30    31   ar
    18    31    32   ar
    19    32    33    1
    20    32    34   ar
    21    34    35    1
    22     3     4   ar
    23     4     5   ar
    24     5     6   ar
    25     6     7   ar
    26     7     8   ar
    27     8     9   ar
    28    18    19   ar
    29    19    20   ar
    30    20    21    1
    31    20    22   ar
    32    22    11    1
    33    22    16   ar
    34     9     1   ar
    35    34    27   ar
    36     9     4   ar
    37    15    23    1
    38    21    24    1
    39    21    25    1
