@<TRIPOS>MOLECULE
*****
 34 38 0 0 0
SMALL
GASTEIGER

@<TRIPOS>ATOM
      1 N         142.2316  142.1835  162.0867 N.pl3   1  UNL1       -0.2803
      2 H         142.9732  142.3505  162.7122 H       1  UNL1        0.1551
      3 C         141.4307  140.9197  162.1934 C.ar    1  UNL1        0.2220
      4 N         141.1517  139.9559  161.0783 N.ar    1  UNL1       -0.2104
      5 C         140.3168  138.8384  161.6297 C.ar    1  UNL1        0.1210
      6 C         140.0798  139.1114  163.0855 C.ar    1  UNL1        0.1049
      7 C         139.3261  138.3549  164.1388 C.ar    1  UNL1        0.0225
      8 C         139.2608  138.8848  165.5406 C.ar    1  UNL1        0.0241
      9 C         139.9493  140.1711  165.8889 C.ar    1  UNL1        0.1212
     10 N         140.7030  140.9276  164.8356 N.ar    1  UNL1       -0.1612
     11 N         140.7683  140.3977  163.4338 N.ar    1  UNL1       -0.1983
     12 C         139.8840  140.7010  167.2908 C.ar    1  UNL1        0.1279
     13 N         139.2690  139.8710  168.3784 N.ar    1  UNL1       -0.2400
     14 C         139.2037  140.4009  169.7802 C.ar    1  UNL1        0.0990
     15 C         139.7534  141.7607  170.0944 C.ar    1  UNL1        0.0230
     16 C         140.3684  142.5907  169.0067 C.ar    1  UNL1        0.0328
     17 C         140.4337  142.0608  167.6049 C.ar    1  UNL1        0.1592
     18 F         141.0487  142.8908  166.5172 F       1  UNL1       -0.2025
     19 C         140.5983  143.9323  161.0747 C.ar    1  UNL1        0.0646
     20 C         140.2692  144.9416  160.0150 C.ar    1  UNL1        0.0364
     21 C         141.2442  145.2113  158.9075 C.ar    1  UNL1        0.1002
     22 N         142.5484  144.4718  158.8597 N.ar    1  UNL1       -0.2409
     23 C         142.8775  143.4626  159.9194 C.ar    1  UNL1        0.1147
     24 C         141.9024  143.1928  161.0269 C.ar    1  UNL1        0.0834
     25 C         138.7204  145.0510  165.7887 C.3     1  UNL1        0.0018
     26 C         138.6843  144.2218  164.5392 C.3     1  UNL1        0.0212
     27 C         137.6732  143.1230  164.3971 C.3     1  UNL1        0.0189
     28 C         137.6371  142.2939  163.1476 C.3     1  UNL1        0.0709
     29 N         136.6260  141.1951  163.0056 N.3     1  UNL1       -0.3208
     30 C         138.6121  142.5637  162.0401 C.3     1  UNL1        0.1062
     31 N         139.6232  143.6625  162.1822 N.pl3   1  UNL1       -0.3051
     32 C         139.6593  144.4916  163.4317 C.3     1  UNL1        0.0909
     33 H         136.0493  141.1531  163.8459 H       1  UNL1        0.1189
     34 H         137.1071  140.3047  162.8786 H       1  UNL1        0.1189
@<TRIPOS>BOND
     1    26    25    1
     2    26    27    1
     3    27    28    1
     4    28    29    1
     5    28    30    1
     6    30    31    1
     7    31    19    1
     8    19    20   ar
     9    20    21   ar
    10    21    22   ar
    11    22    23   ar
    12    23    24   ar
    13    24     1    1
    14     1     3    1
    15     3     4   ar
    16     4     5   ar
    17     5     6   ar
    18     6     7   ar
    19     7     8   ar
    20     8     9   ar
    21     9    12    1
    22    12    13   ar
    23    13    14   ar
    24    14    15   ar
    25    15    16   ar
    26    16    17   ar
    27    17    18    1
    28     9    10   ar
    29    10    11   ar
    30    31    32    1
    31    32    26    1
    32    24    19   ar
    33    11     3   ar
    34    11     6   ar
    35    17    12   ar
    36    29    33    1
    37    29    34    1
    38     1     2    1
@<TRIPOS>MOLECULE
*****
 34 38 0 0 0
SMALL
GASTEIGER

@<TRIPOS>ATOM
      1 N         141.5714  140.2048  162.2092 N.pl3   1  UNL1       -0.2803
      2 H         141.4197  140.4478  161.2673 H       1  UNL1        0.1551
      3 C         140.4884  139.5234  162.9919 C.ar    1  UNL1        0.2220
      4 N         139.4751  138.5630  162.4433 N.ar    1  UNL1       -0.2104
      5 C         138.5890  138.1288  163.5729 C.ar    1  UNL1        0.1210
      6 C         139.0545  138.8207  164.8197 C.ar    1  UNL1        0.1049
      7 C         138.5611  138.7773  166.2355 C.ar    1  UNL1        0.0225
      8 C         139.2417  139.5959  167.2923 C.ar    1  UNL1        0.0241
      9 C         140.4156  140.4578  166.9332 C.ar    1  UNL1        0.1212
     10 N         140.9090  140.5012  165.5173 N.ar    1  UNL1       -0.1612
     11 N         140.2284  139.6827  164.4606 N.ar    1  UNL1       -0.1983
     12 C         141.0962  141.2764  167.9900 C.ar    1  UNL1        0.1279
     13 N         140.4233  142.4983  168.5415 N.ar    1  UNL1       -0.2400
     14 C         141.1039  143.3169  169.5983 C.ar    1  UNL1        0.0990
     15 C         142.4574  142.9135  170.1036 C.ar    1  UNL1        0.0230
     16 C         143.1303  141.6915  169.5521 C.ar    1  UNL1        0.0328
     17 C         142.4497  140.8730  168.4954 C.ar    1  UNL1        0.1592
     18 F         143.1226  139.6511  167.9439 F       1  UNL1       -0.2025
     19 C         143.2435  141.9358  163.1883 C.ar    1  UNL1        0.0646
     20 C         144.5578  142.2470  163.8407 C.ar    1  UNL1        0.0364
     21 C         145.5144  141.1386  164.1666 C.ar    1  UNL1        0.1002
     22 N         145.1568  139.7189  163.8401 N.ar    1  UNL1       -0.2409
     23 C         143.8425  139.4077  163.1876 C.ar    1  UNL1        0.1147
     24 C         142.8858  140.5161  162.8617 C.ar    1  UNL1        0.0834
     25 C         139.2115  144.9346  164.5114 C.3     1  UNL1        0.0018
     26 C         140.2708  144.5436  163.5239 C.3     1  UNL1        0.0212
     27 C         140.3734  145.2610  162.2106 C.3     1  UNL1        0.0189
     28 C         141.4327  144.8700  161.2231 C.3     1  UNL1        0.0709
     29 N         141.5353  145.5873  159.9098 N.3     1  UNL1       -0.3208
     30 C         142.3894  143.7616  161.5490 C.3     1  UNL1        0.1062
     31 N         142.2868  143.0442  162.8624 N.pl3   1  UNL1       -0.3051
     32 C         141.2275  143.4353  163.8498 C.3     1  UNL1        0.0909
     33 H         140.8123  146.3049  159.8571 H       1  UNL1        0.1189
     34 H         141.4093  144.9212  159.1478 H       1  UNL1        0.1189
@<TRIPOS>BOND
     1    26    25    1
     2    26    27    1
     3    27    28    1
     4    28    29    1
     5    28    30    1
     6    30    31    1
     7    31    19    1
     8    19    20   ar
     9    20    21   ar
    10    21    22   ar
    11    22    23   ar
    12    23    24   ar
    13    24     1    1
    14     1     3    1
    15     3     4   ar
    16     4     5   ar
    17     5     6   ar
    18     6     7   ar
    19     7     8   ar
    20     8     9   ar
    21     9    12    1
    22    12    13   ar
    23    13    14   ar
    24    14    15   ar
    25    15    16   ar
    26    16    17   ar
    27    17    18    1
    28     9    10   ar
    29    10    11   ar
    30    31    32    1
    31    32    26    1
    32    24    19   ar
    33    11     3   ar
    34    11     6   ar
    35    17    12   ar
    36    29    33    1
    37    29    34    1
    38     1     2    1
@<TRIPOS>MOLECULE
*****
 34 38 0 0 0
SMALL
GASTEIGER

@<TRIPOS>ATOM
      1 N         141.5440  141.9562  160.8858 N.pl3   1  UNL1       -0.2803
      2 H         142.4768  141.8318  160.5965 H       1  UNL1        0.1551
      3 C         140.6347  140.7704  161.0164 C.ar    1  UNL1        0.2220
      4 N         139.8318  140.1493  159.9121 N.ar    1  UNL1       -0.2104
      5 C         139.0695  138.9926  160.4874 C.ar    1  UNL1        0.1210
      6 C         139.4013  138.8989  161.9472 C.ar    1  UNL1        0.1049
      7 C         138.9476  137.9549  163.0210 C.ar    1  UNL1        0.0225
      8 C         139.4612  138.1098  164.4218 C.ar    1  UNL1        0.0241
      9 C         140.4286  139.2086  164.7487 C.ar    1  UNL1        0.1212
     10 N         140.8823  140.1525  163.6749 N.ar    1  UNL1       -0.1612
     11 N         140.3687  139.9976  162.2742 N.ar    1  UNL1       -0.1983
     12 C         140.9422  139.3635  166.1496 C.ar    1  UNL1        0.1279
     13 N         140.0453  139.9083  167.2213 N.ar    1  UNL1       -0.2400
     14 C         140.5589  140.0631  168.6221 C.ar    1  UNL1        0.0990
     15 C         141.9695  139.6731  168.9512 C.ar    1  UNL1        0.0230
     16 C         142.8664  139.1283  167.8793 C.ar    1  UNL1        0.0328
     17 C         142.3528  138.9735  166.4786 C.ar    1  UNL1        0.1592
     18 F         143.2497  138.4286  165.4067 F       1  UNL1       -0.2025
     19 C         141.5635  144.0797  162.3827 C.ar    1  UNL1        0.0646
     20 C         141.0516  145.4551  162.6929 C.ar    1  UNL1        0.0364
     21 C         140.0084  146.0825  161.8166 C.ar    1  UNL1        0.1002
     22 N         139.4770  145.3344  160.6299 N.ar    1  UNL1       -0.2409
     23 C         139.9889  143.9591  160.3197 C.ar    1  UNL1        0.1147
     24 C         141.0321  143.3317  161.1961 C.ar    1  UNL1        0.0834
     25 C         143.1545  142.5268  167.0792 C.3     1  UNL1        0.0018
     26 C         143.4023  142.6759  165.6073 C.3     1  UNL1        0.0212
     27 C         144.6933  142.1977  165.0118 C.3     1  UNL1        0.0189
     28 C         144.9410  142.3468  163.5400 C.3     1  UNL1        0.0709
     29 N         146.2320  141.8686  162.9445 N.3     1  UNL1       -0.3208
     30 C         143.8978  142.9742  162.6636 C.3     1  UNL1        0.1062
     31 N         142.6068  143.4524  163.2591 N.pl3   1  UNL1       -0.3051
     32 C         142.3590  143.3032  164.7310 C.3     1  UNL1        0.0909
     33 H         146.8191  141.4728  163.6788 H       1  UNL1        0.1189
     34 H         146.7162  142.6530  162.5079 H       1  UNL1        0.1189
@<TRIPOS>BOND
     1    26    25    1
     2    26    27    1
     3    27    28    1
     4    28    29    1
     5    28    30    1
     6    30    31    1
     7    31    19    1
     8    19    20   ar
     9    20    21   ar
    10    21    22   ar
    11    22    23   ar
    12    23    24   ar
    13    24     1    1
    14     1     3    1
    15     3     4   ar
    16     4     5   ar
    17     5     6   ar
    18     6     7   ar
    19     7     8   ar
    20     8     9   ar
    21     9    12    1
    22    12    13   ar
    23    13    14   ar
    24    14    15   ar
    25    15    16   ar
    26    16    17   ar
    27    17    18    1
    28     9    10   ar
    29    10    11   ar
    30    31    32    1
    31    32    26    1
    32    24    19   ar
    33    11     3   ar
    34    11     6   ar
    35    17    12   ar
    36    29    33    1
    37    29    34    1
    38     1     2    1
@<TRIPOS>MOLECULE
*****
 34 38 0 0 0
SMALL
GASTEIGER

@<TRIPOS>ATOM
      1 N         142.1544  141.3337  161.0789 N.pl3   1  UNL1       -0.2803
      2 H         142.0311  141.9238  160.3005 H       1  UNL1        0.1551
      3 C         141.2750  140.1314  161.2553 C.ar    1  UNL1        0.2220
      4 N         140.6569  139.3219  160.1541 N.ar    1  UNL1       -0.2104
      5 C         139.8593  138.2177  160.7822 C.ar    1  UNL1        0.1210
      6 C         139.9843  138.3448  162.2716 C.ar    1  UNL1        0.1049
      7 C         139.4145  137.5364  163.3993 C.ar    1  UNL1        0.0225
      8 C         139.7197  137.9107  164.8193 C.ar    1  UNL1        0.0241
      9 C         140.5947  139.0935  165.1117 C.ar    1  UNL1        0.1212
     10 N         141.1645  139.9019  163.9841 N.ar    1  UNL1       -0.1612
     11 N         140.8593  139.5276  162.5640 N.ar    1  UNL1       -0.1983
     12 C         140.8998  139.4678  166.5319 C.ar    1  UNL1        0.1279
     13 N         139.7933  139.8986  167.4483 N.ar    1  UNL1       -0.2400
     14 C         140.0984  140.2729  168.8685 C.ar    1  UNL1        0.0990
     15 C         141.5102  140.2164  169.3722 C.ar    1  UNL1        0.0230
     16 C         142.6168  139.7856  168.4557 C.ar    1  UNL1        0.0328
     17 C         142.3116  139.4113  167.0356 C.ar    1  UNL1        0.1592
     18 F         143.4182  138.9805  166.1191 F       1  UNL1       -0.2025
     19 C         143.0502  142.7845  163.0392 C.ar    1  UNL1        0.0646
     20 C         144.1174  143.0877  164.0487 C.ar    1  UNL1        0.0364
     21 C         145.3559  142.2436  164.1075 C.ar    1  UNL1        0.1002
     22 N         145.5273  141.0961  163.1567 N.ar    1  UNL1       -0.2409
     23 C         144.4601  140.7929  162.1472 C.ar    1  UNL1        0.1147
     24 C         143.2216  141.6370  162.0884 C.ar    1  UNL1        0.0834
     25 C         138.8216  144.7367  165.3431 C.3     1  UNL1        0.0018
     26 C         139.6974  144.6047  164.1324 C.3     1  UNL1        0.0212
     27 C         139.3346  145.3169  162.8630 C.3     1  UNL1        0.0189
     28 C         140.2104  145.1849  161.6524 C.3     1  UNL1        0.0709
     29 N         139.8476  145.8971  160.3831 N.3     1  UNL1       -0.3208
     30 C         141.4490  144.3408  161.7112 C.3     1  UNL1        0.1062
     31 N         141.8117  143.6286  162.9805 N.pl3   1  UNL1       -0.3051
     32 C         140.9359  143.7606  164.1911 C.3     1  UNL1        0.0909
     33 H         138.9828  146.4198  160.5218 H       1  UNL1        0.1189
     34 H         139.7166  145.2150  159.6361 H       1  UNL1        0.1189
@<TRIPOS>BOND
     1    26    25    1
     2    26    27    1
     3    27    28    1
     4    28    29    1
     5    28    30    1
     6    30    31    1
     7    31    19    1
     8    19    20   ar
     9    20    21   ar
    10    21    22   ar
    11    22    23   ar
    12    23    24   ar
    13    24     1    1
    14     1     3    1
    15     3     4   ar
    16     4     5   ar
    17     5     6   ar
    18     6     7   ar
    19     7     8   ar
    20     8     9   ar
    21     9    12    1
    22    12    13   ar
    23    13    14   ar
    24    14    15   ar
    25    15    16   ar
    26    16    17   ar
    27    17    18    1
    28     9    10   ar
    29    10    11   ar
    30    31    32    1
    31    32    26    1
    32    24    19   ar
    33    11     3   ar
    34    11     6   ar
    35    17    12   ar
    36    29    33    1
    37    29    34    1
    38     1     2    1
@<TRIPOS>MOLECULE
*****
 34 38 0 0 0
SMALL
GASTEIGER

@<TRIPOS>ATOM
      1 N         142.5999  138.4182  163.2355 N.pl3   1  UNL1       -0.2803
      2 H         143.3385  138.1728  163.8385 H       1  UNL1        0.1551
      3 C         141.1789  138.2831  163.6965 C.ar    1  UNL1        0.2220
      4 N         140.0725  137.5953  162.9531 N.ar    1  UNL1       -0.2104
      5 C         138.8246  137.6992  163.7790 C.ar    1  UNL1        0.1210
      6 C         139.1599  138.4512  165.0329 C.ar    1  UNL1        0.1049
      7 C         138.3282  138.8540  166.2144 C.ar    1  UNL1        0.0225
      8 C         138.9516  139.6177  167.3449 C.ar    1  UNL1        0.0241
      9 C         140.4067  139.9786  167.2939 C.ar    1  UNL1        0.1212
     10 N         141.2383  139.5758  166.1124 N.ar    1  UNL1       -0.1612
     11 N         140.6149  138.8121  164.9819 N.ar    1  UNL1       -0.1983
     12 C         141.0301  140.7423  168.4245 C.ar    1  UNL1        0.1279
     13 N         141.8466  140.0219  169.4561 N.ar    1  UNL1       -0.2400
     14 C         142.4700  140.7856  170.5867 C.ar    1  UNL1        0.0990
     15 C         142.2768  142.2698  170.6856 C.ar    1  UNL1        0.0230
     16 C         141.4602  142.9903  169.6540 C.ar    1  UNL1        0.0328
     17 C         140.8369  142.2266  168.5235 C.ar    1  UNL1        0.1592
     18 F         140.0203  142.9470  167.4918 F       1  UNL1       -0.2025
     19 C         142.8779  140.4017  161.5805 C.ar    1  UNL1        0.0646
     20 C         143.1736  140.9106  160.2009 C.ar    1  UNL1        0.0364
     21 C         143.4870  139.9452  159.0965 C.ar    1  UNL1        0.1002
     22 N         143.5048  138.4707  159.3717 N.ar    1  UNL1       -0.2409
     23 C         143.2091  137.9618  160.7514 C.ar    1  UNL1        0.1147
     24 C         142.8956  138.9272  161.8558 C.ar    1  UNL1        0.0834
     25 C         139.4058  143.1069  164.3421 C.3     1  UNL1        0.0018
     26 C         140.8284  142.7197  164.0658 C.3     1  UNL1        0.0212
     27 C         141.9375  143.2979  164.8937 C.3     1  UNL1        0.0189
     28 C         143.3601  142.9107  164.6173 C.3     1  UNL1        0.0709
     29 N         144.4691  143.4889  165.4453 N.3     1  UNL1       -0.3208
     30 C         143.6735  141.9453  163.5129 C.3     1  UNL1        0.1062
     31 N         142.5644  141.3671  162.6849 N.pl3   1  UNL1       -0.3051
     32 C         141.1419  141.7543  162.9614 C.3     1  UNL1        0.0909
     33 H         144.0779  144.1206  166.1441 H       1  UNL1        0.1189
     34 H         145.1105  144.0041  164.8424 H       1  UNL1        0.1189
@<TRIPOS>BOND
     1    26    25    1
     2    26    27    1
     3    27    28    1
     4    28    29    1
     5    28    30    1
     6    30    31    1
     7    31    19    1
     8    19    20   ar
     9    20    21   ar
    10    21    22   ar
    11    22    23   ar
    12    23    24   ar
    13    24     1    1
    14     1     3    1
    15     3     4   ar
    16     4     5   ar
    17     5     6   ar
    18     6     7   ar
    19     7     8   ar
    20     8     9   ar
    21     9    12    1
    22    12    13   ar
    23    13    14   ar
    24    14    15   ar
    25    15    16   ar
    26    16    17   ar
    27    17    18    1
    28     9    10   ar
    29    10    11   ar
    30    31    32    1
    31    32    26    1
    32    24    19   ar
    33    11     3   ar
    34    11     6   ar
    35    17    12   ar
    36    29    33    1
    37    29    34    1
    38     1     2    1
@<TRIPOS>MOLECULE
*****
 34 38 0 0 0
SMALL
GASTEIGER

@<TRIPOS>ATOM
      1 N         142.5958  138.5657  162.3869 N.pl3   1  UNL1       -0.2803
      2 H         142.7062  137.7546  162.9338 H       1  UNL1        0.1551
      3 C         143.3766  139.8037  162.7151 C.ar    1  UNL1        0.2220
      4 N         144.3722  140.4812  161.8207 N.ar    1  UNL1       -0.2104
      5 C         144.9097  141.6778  162.5483 C.ar    1  UNL1        0.1210
      6 C         144.2464  141.7398  163.8922 C.ar    1  UNL1        0.1049
      7 C         144.3828  142.7013  165.0354 C.ar    1  UNL1        0.0225
      8 C         143.5717  142.5045  166.2816 C.ar    1  UNL1        0.0241
      9 C         142.6241  141.3463  166.3848 C.ar    1  UNL1        0.1212
     10 N         142.4877  140.3848  165.2416 N.ar    1  UNL1       -0.1612
     11 N         143.2989  140.5816  163.9953 N.ar    1  UNL1       -0.1983
     12 C         141.8129  141.1496  167.6311 C.ar    1  UNL1        0.1279
     13 N         140.8220  142.1934  168.0536 N.ar    1  UNL1       -0.2400
     14 C         140.0108  141.9966  169.2999 C.ar    1  UNL1        0.0990
     15 C         140.1906  140.7561  170.1238 C.ar    1  UNL1        0.0230
     16 C         141.1816  139.7123  169.7013 C.ar    1  UNL1        0.0328
     17 C         141.9928  139.9090  168.4550 C.ar    1  UNL1        0.1592
     18 F         142.9838  138.8652  168.0325 F       1  UNL1       -0.2025
     19 C         140.1917  138.8547  161.4450 C.ar    1  UNL1        0.0646
     20 C         139.2427  138.8525  160.2834 C.ar    1  UNL1        0.0364
     21 C         139.7486  138.5592  158.9020 C.ar    1  UNL1        0.1002
     22 N         141.2036  138.2681  158.6823 N.ar    1  UNL1       -0.2409
     23 C         142.1526  138.2703  159.8439 C.ar    1  UNL1        0.1147
     24 C         141.6467  138.5636  161.2252 C.ar    1  UNL1        0.0834
     25 C         138.2705  137.1978  165.9797 C.3     1  UNL1        0.0018
     26 C         138.7252  138.3195  165.0936 C.3     1  UNL1        0.0212
     27 C         138.6739  139.7345  165.5889 C.3     1  UNL1        0.0189
     28 C         139.1286  140.8561  164.7028 C.3     1  UNL1        0.0709
     29 N         139.0774  142.2710  165.1981 N.3     1  UNL1       -0.3208
     30 C         139.6345  140.5629  163.3215 C.3     1  UNL1        0.1062
     31 N         139.6858  139.1479  162.8263 N.pl3   1  UNL1       -0.3051
     32 C         139.2311  138.0263  163.7123 C.3     1  UNL1        0.0909
     33 H         138.7102  142.2851  166.1496 H       1  UNL1        0.1189
     34 H         138.4702  142.8219  164.5912 H       1  UNL1        0.1189
@<TRIPOS>BOND
     1    26    25    1
     2    26    27    1
     3    27    28    1
     4    28    29    1
     5    28    30    1
     6    30    31    1
     7    31    19    1
     8    19    20   ar
     9    20    21   ar
    10    21    22   ar
    11    22    23   ar
    12    23    24   ar
    13    24     1    1
    14     1     3    1
    15     3     4   ar
    16     4     5   ar
    17     5     6   ar
    18     6     7   ar
    19     7     8   ar
    20     8     9   ar
    21     9    12    1
    22    12    13   ar
    23    13    14   ar
    24    14    15   ar
    25    15    16   ar
    26    16    17   ar
    27    17    18    1
    28     9    10   ar
    29    10    11   ar
    30    31    32    1
    31    32    26    1
    32    24    19   ar
    33    11     3   ar
    34    11     6   ar
    35    17    12   ar
    36    29    33    1
    37    29    34    1
    38     1     2    1
@<TRIPOS>MOLECULE
*****
 34 38 0 0 0
SMALL
GASTEIGER

@<TRIPOS>ATOM
      1 N         142.1805  144.1748  162.0803 N.pl3   1  UNL1       -0.2803
      2 H         141.9596  144.9274  162.6754 H       1  UNL1        0.1551
      3 C         143.2161  143.1713  162.4931 C.ar    1  UNL1        0.2220
      4 N         144.6791  143.2290  162.1670 N.ar    1  UNL1       -0.2104
      5 C         145.3377  142.0272  162.7768 C.ar    1  UNL1        0.1210
      6 C         144.2818  141.2267  163.4799 C.ar    1  UNL1        0.1049
      7 C         144.3448  139.9454  164.2571 C.ar    1  UNL1        0.0225
      8 C         143.0967  139.3711  164.8589 C.ar    1  UNL1        0.0241
      9 C         141.7855  140.0782  164.6836 C.ar    1  UNL1        0.1212
     10 N         141.7224  141.3595  163.9064 N.ar    1  UNL1       -0.1612
     11 N         142.9706  141.9338  163.3046 N.ar    1  UNL1       -0.1983
     12 C         140.5373  139.5038  165.2855 C.ar    1  UNL1        0.1279
     13 N         139.9433  138.2465  164.7230 N.ar    1  UNL1       -0.2400
     14 C         138.6951  137.6722  165.3249 C.ar    1  UNL1        0.0990
     15 C         138.0409  138.3552  166.4893 C.ar    1  UNL1        0.0230
     16 C         138.6350  139.6125  167.0517 C.ar    1  UNL1        0.0328
     17 C         139.8831  140.1868  166.4498 C.ar    1  UNL1        0.1592
     18 F         140.4772  141.4441  167.0122 F       1  UNL1       -0.2025
     19 C         140.0581  143.5606  160.7134 C.ar    1  UNL1        0.0646
     20 C         139.3591  143.4176  159.3940 C.ar    1  UNL1        0.0364
     21 C         140.0834  143.7455  158.1221 C.ar    1  UNL1        0.1002
     22 N         141.5067  144.2166  158.1695 N.ar    1  UNL1       -0.2409
     23 C         142.2057  144.3597  159.4889 C.ar    1  UNL1        0.1147
     24 C         141.4814  144.0317  160.7609 C.ar    1  UNL1        0.0834
     25 C         138.4980  144.9153  165.4811 C.3     1  UNL1        0.0018
     26 C         138.5538  143.9100  164.3692 C.3     1  UNL1        0.0212
     27 C         137.8853  142.5768  164.5293 C.3     1  UNL1        0.0189
     28 C         137.9411  141.5715  163.4174 C.3     1  UNL1        0.0709
     29 N         137.2727  140.2383  163.5775 N.3     1  UNL1       -0.3208
     30 C         138.6654  141.8994  162.1454 C.3     1  UNL1        0.1062
     31 N         139.3338  143.2327  161.9854 N.pl3   1  UNL1       -0.3051
     32 C         139.2780  144.2379  163.0973 C.3     1  UNL1        0.0909
     33 H         136.8324  140.1868  164.4962 H       1  UNL1        0.1189
     34 H         137.9679  139.4969  163.4916 H       1  UNL1        0.1189
@<TRIPOS>BOND
     1    26    25    1
     2    26    27    1
     3    27    28    1
     4    28    29    1
     5    28    30    1
     6    30    31    1
     7    31    19    1
     8    19    20   ar
     9    20    21   ar
    10    21    22   ar
    11    22    23   ar
    12    23    24   ar
    13    24     1    1
    14     1     3    1
    15     3     4   ar
    16     4     5   ar
    17     5     6   ar
    18     6     7   ar
    19     7     8   ar
    20     8     9   ar
    21     9    12    1
    22    12    13   ar
    23    13    14   ar
    24    14    15   ar
    25    15    16   ar
    26    16    17   ar
    27    17    18    1
    28     9    10   ar
    29    10    11   ar
    30    31    32    1
    31    32    26    1
    32    24    19   ar
    33    11     3   ar
    34    11     6   ar
    35    17    12   ar
    36    29    33    1
    37    29    34    1
    38     1     2    1
@<TRIPOS>MOLECULE
*****
 34 38 0 0 0
SMALL
GASTEIGER

@<TRIPOS>ATOM
      1 N         142.8950  142.8702  160.8866 N.pl3   1  UNL1       -0.2803
      2 H         143.0918  142.6852  159.9399 H       1  UNL1        0.1551
      3 C         141.7957  143.8232  161.2518 C.ar    1  UNL1        0.2220
      4 N         141.5163  145.1412  160.5925 N.ar    1  UNL1       -0.2104
      5 C         140.3307  145.7580  161.2737 C.ar    1  UNL1        0.1210
      6 C         139.8774  144.8212  162.3539 C.ar    1  UNL1        0.1049
      7 C         138.7572  144.9026  163.3481 C.ar    1  UNL1        0.0225
      8 C         138.5425  143.7881  164.3288 C.ar    1  UNL1        0.0241
      9 C         139.4479  142.5923  164.3153 C.ar    1  UNL1        0.1212
     10 N         140.5681  142.5109  163.3211 N.ar    1  UNL1       -0.1612
     11 N         140.7829  143.6254  162.3404 N.ar    1  UNL1       -0.1983
     12 C         139.2331  141.4778  165.2960 C.ar    1  UNL1        0.1279
     13 N         139.9476  141.4911  166.6148 N.ar    1  UNL1       -0.2400
     14 C         139.7328  140.3766  167.5955 C.ar    1  UNL1        0.0990
     15 C         138.8034  139.2488  167.2574 C.ar    1  UNL1        0.0230
     16 C         138.0888  139.2355  165.9386 C.ar    1  UNL1        0.0328
     17 C         138.3037  140.3500  164.9579 C.ar    1  UNL1        0.1592
     18 F         137.5891  140.3367  163.6391 F       1  UNL1       -0.2025
     19 C         143.6944  140.7032  162.0763 C.ar    1  UNL1        0.0646
     20 C         144.4938  140.0321  163.1536 C.ar    1  UNL1        0.0364
     21 C         145.2932  140.8567  164.1185 C.ar    1  UNL1        0.1002
     22 N         145.2932  142.3525  164.0061 N.ar    1  UNL1       -0.2409
     23 C         144.4938  143.0236  162.9288 C.ar    1  UNL1        0.1147
     24 C         143.6944  142.1990  161.9639 C.ar    1  UNL1        0.0834
     25 C         139.2960  138.2283  160.8400 C.3     1  UNL1        0.0018
     26 C         140.6958  138.6411  160.4932 C.3     1  UNL1        0.0212
     27 C         141.2961  138.2294  159.1818 C.3     1  UNL1        0.0189
     28 C         142.6959  138.6423  158.8351 C.3     1  UNL1        0.0709
     29 N         143.2962  138.2305  157.5236 N.3     1  UNL1       -0.3208
     30 C         143.4953  139.4669  159.8000 C.3     1  UNL1        0.1062
     31 N         142.8950  139.8786  161.1115 N.pl3   1  UNL1       -0.3051
     32 C         141.4952  139.4657  161.4581 C.3     1  UNL1        0.0909
     33 H         142.6182  137.6791  156.9976 H       1  UNL1        0.1189
     34 H         144.1317  137.6705  157.6930 H       1  UNL1        0.1189
@<TRIPOS>BOND
     1    26    25    1
     2    26    27    1
     3    27    28    1
     4    28    29    1
     5    28    30    1
     6    30    31    1
     7    31    19    1
     8    19    20   ar
     9    20    21   ar
    10    21    22   ar
    11    22    23   ar
    12    23    24   ar
    13    24     1    1
    14     1     3    1
    15     3     4   ar
    16     4     5   ar
    17     5     6   ar
    18     6     7   ar
    19     7     8   ar
    20     8     9   ar
    21     9    12    1
    22    12    13   ar
    23    13    14   ar
    24    14    15   ar
    25    15    16   ar
    26    16    17   ar
    27    17    18    1
    28     9    10   ar
    29    10    11   ar
    30    31    32    1
    31    32    26    1
    32    24    19   ar
    33    11     3   ar
    34    11     6   ar
    35    17    12   ar
    36    29    33    1
    37    29    34    1
    38     1     2    1
@<TRIPOS>MOLECULE
*****
 34 38 0 0 0
SMALL
GASTEIGER

@<TRIPOS>ATOM
      1 N         140.2000  139.3509  162.2307 N.pl3   1  UNL1       -0.2803
      2 H         140.1275  138.6826  162.9500 H       1  UNL1        0.1551
      3 C         139.6176  140.7205  162.4178 C.ar    1  UNL1        0.2220
      4 N         138.7935  141.4726  161.4152 N.ar    1  UNL1       -0.2104
      5 C         138.4237  142.7953  162.0181 C.ar    1  UNL1        0.1210
      6 C         139.0193  142.8608  163.3933 C.ar    1  UNL1        0.1049
      7 C         138.9850  143.9223  164.4524 C.ar    1  UNL1        0.0225
      8 C         139.6886  143.7015  165.7586 C.ar    1  UNL1        0.0241
      9 C         140.4265  142.4191  166.0056 C.ar    1  UNL1        0.1212
     10 N         140.4608  141.3576  164.9464 N.ar    1  UNL1       -0.1612
     11 N         139.7572  141.5784  163.6403 N.ar    1  UNL1       -0.1983
     12 C         141.1302  142.1983  167.3118 C.ar    1  UNL1        0.1279
     13 N         140.3399  141.8669  168.5428 N.ar    1  UNL1       -0.2400
     14 C         141.0435  141.6461  169.8491 C.ar    1  UNL1        0.0990
     15 C         142.5375  141.7568  169.9242 C.ar    1  UNL1        0.0230
     16 C         143.3279  142.0883  168.6931 C.ar    1  UNL1        0.0328
     17 C         142.6242  142.3090  167.3870 C.ar    1  UNL1        0.1592
     18 F         143.4146  142.6405  166.1558 F       1  UNL1       -0.2025
     19 C         142.3912  139.0142  160.8758 C.ar    1  UNL1        0.0646
     20 C         143.0841  138.6627  159.5927 C.ar    1  UNL1        0.0364
     21 C         142.2788  138.2964  158.3814 C.ar    1  UNL1        0.1002
     22 N         140.7806  138.2816  158.4531 N.ar    1  UNL1       -0.2409
     23 C         140.0878  138.6331  159.7362 C.ar    1  UNL1        0.1147
     24 C         140.8930  138.9994  160.9475 C.ar    1  UNL1        0.0834
     25 C         143.4697  138.3887  165.9202 C.3     1  UNL1        0.0018
     26 C         143.7358  139.0677  164.6093 C.3     1  UNL1        0.0212
     27 C         144.8070  140.1130  164.5098 C.3     1  UNL1        0.0189
     28 C         145.0730  140.7919  163.1990 C.3     1  UNL1        0.0709
     29 N         146.1443  141.8371  163.0996 N.3     1  UNL1       -0.3208
     30 C         144.2677  140.4257  161.9877 C.3     1  UNL1        0.1062
     31 N         143.1965  139.3804  162.0872 N.pl3   1  UNL1       -0.3051
     32 C         142.9305  138.7015  163.3980 C.3     1  UNL1        0.0909
     33 H         146.5867  141.9583  164.0107 H       1  UNL1        0.1189
     34 H         145.7306  142.7208  162.8023 H       1  UNL1        0.1189
@<TRIPOS>BOND
     1    26    25    1
     2    26    27    1
     3    27    28    1
     4    28    29    1
     5    28    30    1
     6    30    31    1
     7    31    19    1
     8    19    20   ar
     9    20    21   ar
    10    21    22   ar
    11    22    23   ar
    12    23    24   ar
    13    24     1    1
    14     1     3    1
    15     3     4   ar
    16     4     5   ar
    17     5     6   ar
    18     6     7   ar
    19     7     8   ar
    20     8     9   ar
    21     9    12    1
    22    12    13   ar
    23    13    14   ar
    24    14    15   ar
    25    15    16   ar
    26    16    17   ar
    27    17    18    1
    28     9    10   ar
    29    10    11   ar
    30    31    32    1
    31    32    26    1
    32    24    19   ar
    33    11     3   ar
    34    11     6   ar
    35    17    12   ar
    36    29    33    1
    37    29    34    1
    38     1     2    1
