@<TRIPOS>MOLECULE
*****
 36 41 0 0 0
SMALL
GASTEIGER

@<TRIPOS>ATOM
      1 S         139.8311  146.0337  161.7095 S.3     1  UNL1       -0.0756
      2 C         140.1674  143.1956  164.3359 C.ar    1  UNL1        0.1669
      3 N         141.4436  143.9513  164.5607 N.ar    1  UNL1       -0.1282
      4 N         141.4729  145.1064  163.6042 N.ar    1  UNL1       -0.1221
      5 C         140.2149  145.0646  162.7883 C.ar    1  UNL1        0.1932
      6 N         139.4081  143.8838  163.2405 N.ar    1  UNL1       -0.2884
      7 C         138.0758  143.4645  162.6934 C.3     1  UNL1        0.1340
      8 C         142.7197  140.1771  169.9595 C.3     1  UNL1        0.0521
      9 C         141.9718  140.6248  168.7387 C.ar    1  UNL1        0.0593
     10 C         142.4114  141.8529  167.9981 C.ar    1  UNL1        0.0147
     11 C         141.6634  142.3004  166.7774 C.ar    1  UNL1        0.0028
     12 C         140.4758  141.5200  166.2973 C.ar    1  UNL1        0.0206
     13 C         139.7278  141.9676  165.0765 C.ar    1  UNL1        0.0374
     14 C         138.5403  141.1871  164.5965 C.ar    1  UNL1        0.0031
     15 C         138.1007  139.9590  165.3371 C.ar    1  UNL1        0.0016
     16 C         138.8486  139.5114  166.5578 C.ar    1  UNL1        0.0191
     17 C         140.0362  140.2919  167.0379 C.ar    1  UNL1        0.0810
     18 N         140.7842  139.8442  168.2587 N.ar    1  UNL1       -0.2497
     19 C         139.9748  145.6462  160.2676 C.3     1  UNL1        0.0666
     20 C         141.2876  145.1303  159.7569 C.3     1  UNL1        0.0294
     21 C         141.3751  143.7521  159.1714 C.3     1  UNL1        0.0730
     22 N         141.1735  142.5511  160.0471 N.3     1  UNL1       -0.2720
     23 C         140.0126  141.6715  159.6880 C.3     1  UNL1        0.0768
     24 C         139.5509  140.4119  160.3592 C.3     1  UNL1        0.0434
     25 C         140.1359  139.7210  161.5551 C.ar    1  UNL1       -0.0231
     26 C         139.3656  138.4818  161.9033 C.ar    1  UNL1       -0.0013
     27 C         139.7866  137.6406  163.0717 C.ar    1  UNL1        0.0388
     28 C         140.9778  138.0384  163.8919 C.ar    1  UNL1        0.1640
     29 O         141.6250  137.4120  165.0913 O.2     1  UNL1       -0.4384
     30 C         142.7954  138.2640  165.4845 C.ar    1  UNL1        0.2062
     31 C         143.7262  138.0081  166.6325 C.3     1  UNL1        0.0950
     32 N         142.8715  139.4170  164.5279 N.ar    1  UNL1       -0.2124
     33 C         141.7481  139.2775  163.5436 C.ar    1  UNL1        0.1143
     34 C         141.3272  140.1188  162.3753 C.ar    1  UNL1       -0.0040
     35 C         142.2276  141.3059  162.2020 C.3     1  UNL1        0.0450
     36 C         142.1592  142.3883  161.1658 C.3     1  UNL1        0.0769
@<TRIPOS>BOND
     1     8     9    1
     2     9    10   ar
     3    10    11   ar
     4    11    12   ar
     5    12    13   ar
     6    13     2    1
     7     2     3   ar
     8     3     4   ar
     9     4     5   ar
    10     5     1    1
    11     1    19    1
    12    19    20    1
    13    20    21    1
    14    21    22    1
    15    22    23    1
    16    23    24    1
    17    24    25    1
    18    25    26   ar
    19    26    27   ar
    20    27    28   ar
    21    28    29   ar
    22    29    30   ar
    23    30    31    1
    24    30    32   ar
    25    32    33   ar
    26    33    34   ar
    27    34    35    1
    28    35    36    1
    29     5     6   ar
    30     6     7    1
    31    13    14   ar
    32    14    15   ar
    33    15    16   ar
    34    16    17   ar
    35    17    18   ar
    36    18     9   ar
    37    17    12   ar
    38     6     2   ar
    39    36    22    1
    40    34    25   ar
    41    33    28   ar
@<TRIPOS>MOLECULE
*****
 36 41 0 0 0
SMALL
GASTEIGER

@<TRIPOS>ATOM
      1 S         140.4478  145.1546  158.7368 S.3     1  UNL1       -0.0756
      2 C         141.3059  144.5833  162.4789 C.ar    1  UNL1        0.1669
      3 N         140.0947  145.4613  162.5900 N.ar    1  UNL1       -0.1282
      4 N         139.6259  145.7821  161.2017 N.ar    1  UNL1       -0.1221
      5 C         140.5473  145.1025  160.2326 C.ar    1  UNL1        0.1932
      6 N         141.5855  144.3616  161.0220 N.ar    1  UNL1       -0.2884
      7 C         142.7068  143.5428  160.4541 C.3     1  UNL1        0.1340
      8 C         139.5976  140.0314  167.3381 C.3     1  UNL1        0.0521
      9 C         140.2227  141.0299  166.4095 C.ar    1  UNL1        0.0593
     10 C         139.4303  141.5880  165.2646 C.ar    1  UNL1        0.0147
     11 C         140.0556  142.5864  164.3361 C.ar    1  UNL1        0.0028
     12 C         141.4731  143.0267  164.5523 C.ar    1  UNL1        0.0206
     13 C         142.0982  144.0252  163.6236 C.ar    1  UNL1        0.0374
     14 C         143.5158  144.4654  163.8399 C.ar    1  UNL1        0.0031
     15 C         144.3081  143.9072  164.9847 C.ar    1  UNL1        0.0016
     16 C         143.6830  142.9089  165.9133 C.ar    1  UNL1        0.0191
     17 C         142.2655  142.4686  165.6971 C.ar    1  UNL1        0.0810
     18 N         141.6403  141.4701  166.6257 N.ar    1  UNL1       -0.2497
     19 C         140.0775  143.9220  157.9665 C.3     1  UNL1        0.0666
     20 C         138.8350  143.1604  158.3221 C.3     1  UNL1        0.0294
     21 C         138.8412  141.6606  158.2951 C.3     1  UNL1        0.0730
     22 N         139.1296  140.8891  159.5488 N.3     1  UNL1       -0.2720
     23 C         137.9942  140.0671  160.0827 C.3     1  UNL1        0.0768
     24 C         137.9640  139.1945  161.3025 C.3     1  UNL1        0.0434
     25 C         139.0618  138.9286  162.2894 C.ar    1  UNL1       -0.0231
     26 C         138.6120  137.9899  163.3696 C.ar    1  UNL1       -0.0013
     27 C         139.5613  137.5922  164.4608 C.ar    1  UNL1        0.0388
     28 C         140.9603  138.1330  164.4719 C.ar    1  UNL1        0.1640
     29 O         142.1108  137.9216  165.4109 O.2     1  UNL1       -0.4384
     30 C         143.2716  138.7295  164.9111 C.ar    1  UNL1        0.2062
     31 C         144.6274  138.8122  165.5474 C.3     1  UNL1        0.0950
     32 N         142.8386  139.4403  163.6631 N.ar    1  UNL1       -0.2124
     33 C         141.4101  139.0717  163.3917 C.ar    1  UNL1        0.1143
     34 C         140.4608  139.4694  162.3005 C.ar    1  UNL1       -0.0040
     35 C         141.1077  140.4098  161.3273 C.3     1  UNL1        0.0450
     36 C         140.5151  141.0416  160.1026 C.3     1  UNL1        0.0769
@<TRIPOS>BOND
     1     8     9    1
     2     9    10   ar
     3    10    11   ar
     4    11    12   ar
     5    12    13   ar
     6    13     2    1
     7     2     3   ar
     8     3     4   ar
     9     4     5   ar
    10     5     1    1
    11     1    19    1
    12    19    20    1
    13    20    21    1
    14    21    22    1
    15    22    23    1
    16    23    24    1
    17    24    25    1
    18    25    26   ar
    19    26    27   ar
    20    27    28   ar
    21    28    29   ar
    22    29    30   ar
    23    30    31    1
    24    30    32   ar
    25    32    33   ar
    26    33    34   ar
    27    34    35    1
    28    35    36    1
    29     5     6   ar
    30     6     7    1
    31    13    14   ar
    32    14    15   ar
    33    15    16   ar
    34    16    17   ar
    35    17    18   ar
    36    18     9   ar
    37    17    12   ar
    38     6     2   ar
    39    36    22    1
    40    34    25   ar
    41    33    28   ar
@<TRIPOS>MOLECULE
*****
 36 41 0 0 0
SMALL
GASTEIGER

@<TRIPOS>ATOM
      1 S         141.5326  144.6155  159.0422 S.3     1  UNL1       -0.0756
      2 C         141.6109  141.5864  161.4680 C.ar    1  UNL1        0.1669
      3 N         142.8483  142.3244  161.8856 N.ar    1  UNL1       -0.1282
      4 N         142.9695  143.5488  161.0277 N.ar    1  UNL1       -0.1221
      5 C         141.8071  143.5677  160.0799 C.ar    1  UNL1        0.1932
      6 N         140.9674  142.3549  160.3520 N.ar    1  UNL1       -0.2884
      7 C         139.7057  141.9769  159.6341 C.3     1  UNL1        0.1340
      8 C         143.9263  137.8586  166.7588 C.3     1  UNL1        0.0521
      9 C         143.2211  138.4703  165.5846 C.ar    1  UNL1        0.0593
     10 C         143.7263  139.7517  164.9905 C.ar    1  UNL1        0.0147
     11 C         143.0212  140.3632  163.8164 C.ar    1  UNL1        0.0028
     12 C         141.8108  139.6935  163.2362 C.ar    1  UNL1        0.0206
     13 C         141.1057  140.3052  162.0620 C.ar    1  UNL1        0.0374
     14 C         139.8954  139.6353  161.4819 C.ar    1  UNL1        0.0031
     15 C         139.3902  138.3540  162.0760 C.ar    1  UNL1        0.0016
     16 C         140.0953  137.7424  163.2501 C.ar    1  UNL1        0.0191
     17 C         141.3056  138.4121  163.8302 C.ar    1  UNL1        0.0810
     18 N         142.0108  137.8005  165.0045 N.ar    1  UNL1       -0.2497
     19 C         140.8097  145.8742  159.4204 C.3     1  UNL1        0.0666
     20 C         139.7111  145.8305  160.4408 C.3     1  UNL1        0.0294
     21 C         140.0373  145.9529  161.8998 C.3     1  UNL1        0.0730
     22 N         139.8806  144.7675  162.8055 N.3     1  UNL1       -0.2720
     23 C         138.7103  143.8757  162.5134 C.3     1  UNL1        0.0768
     24 C         138.2852  142.6267  163.2273 C.3     1  UNL1        0.0434
     25 C         138.9254  141.9612  164.4092 C.ar    1  UNL1       -0.0231
     26 C         138.1779  140.7251  164.8135 C.ar    1  UNL1       -0.0013
     27 C         138.6538  139.9080  165.9779 C.ar    1  UNL1        0.0388
     28 C         139.8771  140.3269  166.7382 C.ar    1  UNL1        0.1640
     29 O         140.5791  139.7264  167.9198 O.2     1  UNL1       -0.4384
     30 C         141.7605  140.5913  168.2460 C.ar    1  UNL1        0.2062
     31 C         142.7415  140.3615  169.3572 C.3     1  UNL1        0.0950
     32 N         141.7886  141.7265  167.2658 N.ar    1  UNL1       -0.2124
     33 C         140.6246  141.5631  166.3339 C.ar    1  UNL1        0.1143
     34 C         140.1487  142.3802  165.1695 C.ar    1  UNL1       -0.0040
     35 C         141.0340  143.5682  164.9354 C.3     1  UNL1        0.0450
     36 C         140.9146  144.6307  163.8833 C.3     1  UNL1        0.0769
@<TRIPOS>BOND
     1     8     9    1
     2     9    10   ar
     3    10    11   ar
     4    11    12   ar
     5    12    13   ar
     6    13     2    1
     7     2     3   ar
     8     3     4   ar
     9     4     5   ar
    10     5     1    1
    11     1    19    1
    12    19    20    1
    13    20    21    1
    14    21    22    1
    15    22    23    1
    16    23    24    1
    17    24    25    1
    18    25    26   ar
    19    26    27   ar
    20    27    28   ar
    21    28    29   ar
    22    29    30   ar
    23    30    31    1
    24    30    32   ar
    25    32    33   ar
    26    33    34   ar
    27    34    35    1
    28    35    36    1
    29     5     6   ar
    30     6     7    1
    31    13    14   ar
    32    14    15   ar
    33    15    16   ar
    34    16    17   ar
    35    17    18   ar
    36    18     9   ar
    37    17    12   ar
    38     6     2   ar
    39    36    22    1
    40    34    25   ar
    41    33    28   ar
@<TRIPOS>MOLECULE
*****
 36 41 0 0 0
SMALL
GASTEIGER

@<TRIPOS>ATOM
      1 S         140.2703  144.0733  160.2082 S.3     1  UNL1       -0.0756
      2 C         139.7356  141.9588  163.4189 C.ar    1  UNL1        0.1669
      3 N         140.0073  143.3125  164.0053 N.ar    1  UNL1       -0.1282
      4 N         140.2406  144.2693  162.8739 N.ar    1  UNL1       -0.1221
      5 C         140.1132  143.5070  161.5883 C.ar    1  UNL1        0.1932
      6 N         139.8011  142.0791  161.9252 N.ar    1  UNL1       -0.2884
      7 C         139.5913  140.9666  160.9411 C.3     1  UNL1        0.1340
      8 C         139.6749  140.7555  170.1864 C.3     1  UNL1        0.0521
      9 C         139.6184  140.7429  168.6875 C.ar    1  UNL1        0.0593
     10 C         139.9052  141.9967  167.9156 C.ar    1  UNL1        0.0147
     11 C         139.8487  141.9840  166.4167 C.ar    1  UNL1        0.0028
     12 C         139.5054  140.7177  165.6897 C.ar    1  UNL1        0.0206
     13 C         139.4489  140.7051  164.1908 C.ar    1  UNL1        0.0374
     14 C         139.1056  139.4387  163.4639 C.ar    1  UNL1        0.0031
     15 C         138.8188  138.1850  164.2358 C.ar    1  UNL1        0.0016
     16 C         138.8753  138.1976  165.7346 C.ar    1  UNL1        0.0191
     17 C         139.2186  139.4639  166.4616 C.ar    1  UNL1        0.0810
     18 N         139.2751  139.4765  167.9605 N.ar    1  UNL1       -0.2497
     19 C         141.6387  144.2355  159.6155 C.3     1  UNL1        0.0666
     20 C         142.5915  143.0770  159.6002 C.3     1  UNL1        0.0294
     21 C         143.7264  143.0265  160.5798 C.3     1  UNL1        0.0730
     22 N         143.5541  142.3196  161.8915 N.3     1  UNL1       -0.2720
     23 C         143.2624  140.8507  161.8058 C.3     1  UNL1        0.0768
     24 C         143.0408  139.8745  162.9230 C.3     1  UNL1        0.0434
     25 C         143.0561  140.1261  164.4015 C.ar    1  UNL1       -0.0231
     26 C         142.7865  138.8689  165.1742 C.ar    1  UNL1       -0.0013
     27 C         142.7576  138.9017  166.6735 C.ar    1  UNL1        0.0388
     28 C         142.9984  140.1916  167.4004 C.ar    1  UNL1        0.1640
     29 O         143.0314  140.5294  168.8614 O.2     1  UNL1       -0.4384
     30 C         143.3215  141.9953  168.9919 C.ar    1  UNL1        0.2062
     31 C         143.4438  142.7589  170.2771 C.3     1  UNL1        0.0950
     32 N         143.4677  142.5635  167.6114 N.ar    1  UNL1       -0.2124
     33 C         143.2680  141.4487  166.6277 C.ar    1  UNL1        0.1143
     34 C         143.2969  141.4160  165.1284 C.ar    1  UNL1       -0.0040
     35 C         143.5818  142.7729  164.5560 C.3     1  UNL1        0.0450
     36 C         143.6962  143.1750  163.1154 C.3     1  UNL1        0.0769
@<TRIPOS>BOND
     1     8     9    1
     2     9    10   ar
     3    10    11   ar
     4    11    12   ar
     5    12    13   ar
     6    13     2    1
     7     2     3   ar
     8     3     4   ar
     9     4     5   ar
    10     5     1    1
    11     1    19    1
    12    19    20    1
    13    20    21    1
    14    21    22    1
    15    22    23    1
    16    23    24    1
    17    24    25    1
    18    25    26   ar
    19    26    27   ar
    20    27    28   ar
    21    28    29   ar
    22    29    30   ar
    23    30    31    1
    24    30    32   ar
    25    32    33   ar
    26    33    34   ar
    27    34    35    1
    28    35    36    1
    29     5     6   ar
    30     6     7    1
    31    13    14   ar
    32    14    15   ar
    33    15    16   ar
    34    16    17   ar
    35    17    18   ar
    36    18     9   ar
    37    17    12   ar
    38     6     2   ar
    39    36    22    1
    40    34    25   ar
    41    33    28   ar
@<TRIPOS>MOLECULE
*****
 36 41 0 0 0
SMALL
GASTEIGER

@<TRIPOS>ATOM
      1 S         138.0908  140.8095  157.7562 S.3     1  UNL1       -0.0756
      2 C         138.9577  142.9779  160.8567 C.ar    1  UNL1        0.1669
      3 N         139.4886  143.8349  159.7459 N.ar    1  UNL1       -0.1282
      4 N         139.2285  143.1270  158.4494 N.ar    1  UNL1       -0.1221
      5 C         138.5368  141.8324  158.7587 C.ar    1  UNL1        0.1932
      6 N         138.3694  141.7403  160.2465 N.ar    1  UNL1       -0.2884
      7 C         137.7267  140.6091  160.9931 C.3     1  UNL1        0.1340
      8 C         144.2339  143.1222  165.2602 C.3     1  UNL1        0.0521
      9 C         142.9270  143.1670  164.5252 C.ar    1  UNL1        0.0593
     10 C         142.8783  142.8433  163.0613 C.ar    1  UNL1        0.0147
     11 C         141.5714  142.8881  162.3265 C.ar    1  UNL1        0.0028
     12 C         140.3133  143.2568  163.0554 C.ar    1  UNL1        0.0206
     13 C         139.0064  143.3016  162.3204 C.ar    1  UNL1        0.0374
     14 C         137.7484  143.6703  163.0494 C.ar    1  UNL1        0.0031
     15 C         137.7972  143.9941  164.5132 C.ar    1  UNL1        0.0016
     16 C         139.1039  143.9492  165.2481 C.ar    1  UNL1        0.0191
     17 C         140.3621  143.5806  164.5192 C.ar    1  UNL1        0.0810
     18 N         141.6689  143.5357  165.2542 N.ar    1  UNL1       -0.2497
     19 C         139.0737  139.8173  157.2092 C.3     1  UNL1        0.0666
     20 C         139.6239  138.7397  158.0959 C.3     1  UNL1        0.0294
     21 C         141.0997  138.6596  158.3516 C.3     1  UNL1        0.0730
     22 N         141.6307  138.8389  159.7430 N.3     1  UNL1       -0.2720
     23 C         143.1242  138.8043  159.8791 C.3     1  UNL1        0.0768
     24 C         143.9538  138.9513  161.1202 C.3     1  UNL1        0.0434
     25 C         143.4949  139.1692  162.5315 C.ar    1  UNL1       -0.0231
     26 C         144.6558  139.2621  163.4770 C.ar    1  UNL1       -0.0013
     27 C         144.4147  139.4798  164.9414 C.ar    1  UNL1        0.0388
     28 C         143.0129  139.6045  165.4604 C.ar    1  UNL1        0.1640
     29 O         142.4695  139.8212  166.8416 O.2     1  UNL1       -0.4384
     30 C         140.9728  139.8622  166.7498 C.ar    1  UNL1        0.2062
     31 C         140.0243  140.0599  167.8948 C.3     1  UNL1        0.0950
     32 N         140.5912  139.6709  165.3118 N.ar    1  UNL1       -0.2124
     33 C         141.8521  139.5116  164.5149 C.ar    1  UNL1        0.1143
     34 C         142.0931  139.2940  163.0505 C.ar    1  UNL1       -0.0040
     35 C         140.8039  139.2316  162.2862 C.3     1  UNL1        0.0450
     36 C         140.5982  139.0291  160.8142 C.3     1  UNL1        0.0769
@<TRIPOS>BOND
     1     8     9    1
     2     9    10   ar
     3    10    11   ar
     4    11    12   ar
     5    12    13   ar
     6    13     2    1
     7     2     3   ar
     8     3     4   ar
     9     4     5   ar
    10     5     1    1
    11     1    19    1
    12    19    20    1
    13    20    21    1
    14    21    22    1
    15    22    23    1
    16    23    24    1
    17    24    25    1
    18    25    26   ar
    19    26    27   ar
    20    27    28   ar
    21    28    29   ar
    22    29    30   ar
    23    30    31    1
    24    30    32   ar
    25    32    33   ar
    26    33    34   ar
    27    34    35    1
    28    35    36    1
    29     5     6   ar
    30     6     7    1
    31    13    14   ar
    32    14    15   ar
    33    15    16   ar
    34    16    17   ar
    35    17    18   ar
    36    18     9   ar
    37    17    12   ar
    38     6     2   ar
    39    36    22    1
    40    34    25   ar
    41    33    28   ar
@<TRIPOS>MOLECULE
*****
 36 41 0 0 0
SMALL
GASTEIGER

@<TRIPOS>ATOM
      1 S         139.1960  140.2726  169.9784 S.3     1  UNL1       -0.0756
      2 C         139.7057  141.2097  166.2464 C.ar    1  UNL1        0.1669
      3 N         139.2363  139.7900  166.1273 N.ar    1  UNL1       -0.1282
      4 N         138.9883  139.2662  167.5108 N.ar    1  UNL1       -0.1221
      5 C         139.3044  140.3622  168.4849 C.ar    1  UNL1        0.1932
      6 N         139.7477  141.5633  167.7035 N.ar    1  UNL1       -0.2884
      7 C         140.1607  142.8859  168.2783 C.3     1  UNL1        0.1340
      8 C         140.5089  139.9176  159.5430 C.3     1  UNL1        0.0521
      9 C         140.3990  140.4673  160.9343 C.ar    1  UNL1        0.0593
     10 C         140.0355  139.5605  162.0725 C.ar    1  UNL1        0.0147
     11 C         139.9256  140.1102  163.4638 C.ar    1  UNL1        0.0028
     12 C         140.1791  141.5668  163.7169 C.ar    1  UNL1        0.0206
     13 C         140.0692  142.1165  165.1083 C.ar    1  UNL1        0.0374
     14 C         140.3228  143.5731  165.3613 C.ar    1  UNL1        0.0031
     15 C         140.6863  144.4800  164.2231 C.ar    1  UNL1        0.0016
     16 C         140.7962  143.9303  162.8319 C.ar    1  UNL1        0.0191
     17 C         140.5427  142.4737  162.5787 C.ar    1  UNL1        0.0810
     18 N         140.6526  141.9240  161.1874 N.ar    1  UNL1       -0.2497
     19 C         140.4271  140.0585  170.8080 C.3     1  UNL1        0.0666
     20 C         141.6896  139.5670  170.1639 C.3     1  UNL1        0.0294
     21 C         142.7411  140.5454  169.7317 C.3     1  UNL1        0.0730
     22 N         143.0113  140.7602  168.2720 N.3     1  UNL1       -0.2720
     23 C         143.3790  142.1599  167.8773 C.3     1  UNL1        0.0768
     24 C         143.7042  142.6920  166.5130 C.3     1  UNL1        0.0434
     25 C         143.7421  141.9559  165.2067 C.ar    1  UNL1       -0.0231
     26 C         144.1151  142.8670  164.0749 C.ar    1  UNL1       -0.0013
     27 C         144.2101  142.3280  162.6783 C.ar    1  UNL1        0.0388
     28 C         143.9321  140.8779  162.4134 C.ar    1  UNL1        0.1640
     29 O         143.9469  140.0673  161.1514 O.2     1  UNL1       -0.4384
     30 C         143.5831  138.6552  161.5032 C.ar    1  UNL1        0.2062
     31 C         143.4775  137.5069  160.5440 C.3     1  UNL1        0.0950
     32 N         143.3435  138.5931  162.9826 N.ar    1  UNL1       -0.2124
     33 C         143.5592  139.9669  163.5452 C.ar    1  UNL1        0.1143
     34 C         143.4642  140.5058  164.9418 C.ar    1  UNL1       -0.0040
     35 C         143.0796  139.4338  165.9179 C.3     1  UNL1        0.0450
     36 C         142.8781  139.5471  167.4000 C.3     1  UNL1        0.0769
@<TRIPOS>BOND
     1     8     9    1
     2     9    10   ar
     3    10    11   ar
     4    11    12   ar
     5    12    13   ar
     6    13     2    1
     7     2     3   ar
     8     3     4   ar
     9     4     5   ar
    10     5     1    1
    11     1    19    1
    12    19    20    1
    13    20    21    1
    14    21    22    1
    15    22    23    1
    16    23    24    1
    17    24    25    1
    18    25    26   ar
    19    26    27   ar
    20    27    28   ar
    21    28    29   ar
    22    29    30   ar
    23    30    31    1
    24    30    32   ar
    25    32    33   ar
    26    33    34   ar
    27    34    35    1
    28    35    36    1
    29     5     6   ar
    30     6     7    1
    31    13    14   ar
    32    14    15   ar
    33    15    16   ar
    34    16    17   ar
    35    17    18   ar
    36    18     9   ar
    37    17    12   ar
    38     6     2   ar
    39    36    22    1
    40    34    25   ar
    41    33    28   ar
@<TRIPOS>MOLECULE
*****
 36 41 0 0 0
SMALL
GASTEIGER

@<TRIPOS>ATOM
      1 S         140.4217  145.3661  159.4808 S.3     1  UNL1       -0.0756
      2 C         140.7104  141.5168  159.8871 C.ar    1  UNL1        0.1669
      3 N         139.2279  141.6811  159.7277 N.ar    1  UNL1       -0.1282
      4 N         138.9394  143.1430  159.5561 N.ar    1  UNL1       -0.1221
      5 C         140.2435  143.8823  159.6094 C.ar    1  UNL1        0.1932
      6 N         141.3379  142.8772  159.8140 N.ar    1  UNL1       -0.2884
      7 C         142.8030  143.1795  159.9258 C.3     1  UNL1        0.1340
      8 C         142.8619  138.3927  165.6196 C.3     1  UNL1        0.0521
      9 C         142.5058  138.8495  164.2359 C.ar    1  UNL1        0.0593
     10 C         141.7786  140.1465  164.0381 C.ar    1  UNL1        0.0147
     11 C         141.4226  140.6032  162.6545 C.ar    1  UNL1        0.0028
     12 C         141.7936  139.7631  161.4685 C.ar    1  UNL1        0.0206
     13 C         141.4375  140.2199  160.0848 C.ar    1  UNL1        0.0374
     14 C         141.8086  139.3797  158.8990 C.ar    1  UNL1        0.0031
     15 C         142.5357  138.0827  159.0967 C.ar    1  UNL1        0.0016
     16 C         142.8918  137.6259  160.4803 C.ar    1  UNL1        0.0191
     17 C         142.5207  138.4661  161.6663 C.ar    1  UNL1        0.0810
     18 N         142.8768  138.0092  163.0500 N.ar    1  UNL1       -0.2497
     19 C         139.9607  146.2750  160.5814 C.3     1  UNL1        0.0666
     20 C         139.9569  145.7913  162.0014 C.3     1  UNL1        0.0294
     21 C         138.7151  145.1837  162.5834 C.3     1  UNL1        0.0730
     22 N         138.8207  144.0359  163.5433 N.3     1  UNL1       -0.2720
     23 C         138.0170  142.8187  163.1931 C.3     1  UNL1        0.0768
     24 C         137.9101  141.5220  163.9397 C.3     1  UNL1        0.0434
     25 C         138.5803  141.1224  165.2206 C.ar    1  UNL1       -0.0231
     26 C         138.2003  139.7292  165.6265 C.ar    1  UNL1       -0.0013
     27 C         138.7630  139.1343  166.8832 C.ar    1  UNL1        0.0388
     28 C         139.7058  139.9325  167.7342 C.ar    1  UNL1        0.1640
     29 O         140.4150  139.6136  169.0168 O.2     1  UNL1       -0.4384
     30 C         141.2334  140.8097  169.4038 C.ar    1  UNL1        0.2062
     31 C         142.1025  140.9272  170.6206 C.3     1  UNL1        0.0950
     32 N         141.0299  141.8678  168.3602 N.ar    1  UNL1       -0.2124
     33 C         140.0858  141.3257  167.3283 C.ar    1  UNL1        0.1143
     34 C         139.5231  141.9206  166.0715 C.ar    1  UNL1       -0.0040
     35 C         140.0284  143.3157  165.8516 C.3     1  UNL1        0.0450
     36 C         139.7157  144.2570  164.7264 C.3     1  UNL1        0.0769
@<TRIPOS>BOND
     1     8     9    1
     2     9    10   ar
     3    10    11   ar
     4    11    12   ar
     5    12    13   ar
     6    13     2    1
     7     2     3   ar
     8     3     4   ar
     9     4     5   ar
    10     5     1    1
    11     1    19    1
    12    19    20    1
    13    20    21    1
    14    21    22    1
    15    22    23    1
    16    23    24    1
    17    24    25    1
    18    25    26   ar
    19    26    27   ar
    20    27    28   ar
    21    28    29   ar
    22    29    30   ar
    23    30    31    1
    24    30    32   ar
    25    32    33   ar
    26    33    34   ar
    27    34    35    1
    28    35    36    1
    29     5     6   ar
    30     6     7    1
    31    13    14   ar
    32    14    15   ar
    33    15    16   ar
    34    16    17   ar
    35    17    18   ar
    36    18     9   ar
    37    17    12   ar
    38     6     2   ar
    39    36    22    1
    40    34    25   ar
    41    33    28   ar
@<TRIPOS>MOLECULE
*****
 36 41 0 0 0
SMALL
GASTEIGER

@<TRIPOS>ATOM
      1 S         143.2283  143.1488  158.9060 S.3     1  UNL1       -0.0756
      2 C         143.0913  141.7146  162.5101 C.ar    1  UNL1        0.1669
      3 N         143.5670  143.1128  162.7724 N.ar    1  UNL1       -0.1282
      4 N         143.6762  143.8202  161.4542 N.ar    1  UNL1       -0.1221
      5 C         143.2680  142.8592  160.3772 C.ar    1  UNL1        0.1932
      6 N         142.9065  141.5579  161.0298 N.ar    1  UNL1       -0.2884
      7 C         142.4419  140.3176  160.3257 C.3     1  UNL1        0.1340
      8 C         143.3367  141.9993  169.3737 C.3     1  UNL1        0.0521
      9 C         143.2135  141.6641  167.9168 C.ar    1  UNL1        0.0593
     10 C         143.4609  142.7202  166.8807 C.ar    1  UNL1        0.0147
     11 C         143.3377  142.3849  165.4239 C.ar    1  UNL1        0.0028
     12 C         142.9670  140.9937  165.0031 C.ar    1  UNL1        0.0206
     13 C         142.8438  140.6586  163.5462 C.ar    1  UNL1        0.0374
     14 C         142.4732  139.2673  163.1255 C.ar    1  UNL1        0.0031
     15 C         142.2257  138.2112  164.1616 C.ar    1  UNL1        0.0016
     16 C         142.3489  138.5464  165.6184 C.ar    1  UNL1        0.0191
     17 C         142.7196  139.9376  166.0392 C.ar    1  UNL1        0.0810
     18 N         142.8428  140.2728  167.4961 N.ar    1  UNL1       -0.2497
     19 C         142.0906  143.9365  158.3272 C.3     1  UNL1        0.0666
     20 C         141.4029  144.9806  159.1561 C.3     1  UNL1        0.0294
     21 C         140.0571  144.6967  159.7545 C.3     1  UNL1        0.0730
     22 N         139.9576  144.0710  161.1141 N.3     1  UNL1       -0.2720
     23 C         140.2794  144.9715  162.2699 C.3     1  UNL1        0.0768
     24 C         140.2725  144.6509  163.7353 C.3     1  UNL1        0.0434
     25 C         139.9423  143.3509  164.4067 C.ar    1  UNL1       -0.0231
     26 C         140.0587  143.4594  165.8983 C.ar    1  UNL1       -0.0013
     27 C         139.7701  142.2673  166.7618 C.ar    1  UNL1        0.0388
     28 C         139.3652  140.9667  166.1338 C.ar    1  UNL1        0.1640
     29 O         139.0203  139.6315  166.7239 O.2     1  UNL1       -0.4384
     30 C         138.6908  138.6978  165.5972 C.ar    1  UNL1        0.2062
     31 C         138.2904  137.2586  165.7331 C.3     1  UNL1        0.0950
     32 N         138.8320  139.4559  164.3105 N.ar    1  UNL1       -0.2124
     33 C         139.2488  140.8582  164.6422 C.ar    1  UNL1        0.1143
     34 C         139.5374  142.0503  163.7787 C.ar    1  UNL1       -0.0040
     35 C         139.3626  141.7285  162.3241 C.3     1  UNL1        0.0450
     36 C         139.5497  142.6279  161.1383 C.3     1  UNL1        0.0769
@<TRIPOS>BOND
     1     8     9    1
     2     9    10   ar
     3    10    11   ar
     4    11    12   ar
     5    12    13   ar
     6    13     2    1
     7     2     3   ar
     8     3     4   ar
     9     4     5   ar
    10     5     1    1
    11     1    19    1
    12    19    20    1
    13    20    21    1
    14    21    22    1
    15    22    23    1
    16    23    24    1
    17    24    25    1
    18    25    26   ar
    19    26    27   ar
    20    27    28   ar
    21    28    29   ar
    22    29    30   ar
    23    30    31    1
    24    30    32   ar
    25    32    33   ar
    26    33    34   ar
    27    34    35    1
    28    35    36    1
    29     5     6   ar
    30     6     7    1
    31    13    14   ar
    32    14    15   ar
    33    15    16   ar
    34    16    17   ar
    35    17    18   ar
    36    18     9   ar
    37    17    12   ar
    38     6     2   ar
    39    36    22    1
    40    34    25   ar
    41    33    28   ar
@<TRIPOS>MOLECULE
*****
 36 41 0 0 0
SMALL
GASTEIGER

@<TRIPOS>ATOM
      1 S         140.3517  145.4723  159.6405 S.3     1  UNL1       -0.0756
      2 C         140.3559  143.0922  162.7066 C.ar    1  UNL1        0.1669
      3 N         139.1633  142.5874  161.9494 N.ar    1  UNL1       -0.1282
      4 N         139.0167  143.4176  160.7088 N.ar    1  UNL1       -0.1221
      5 C         140.1185  144.4354  160.6991 C.ar    1  UNL1        0.1932
      6 N         140.9461  144.2343  161.9338 N.ar    1  UNL1       -0.2884
      7 C         142.1524  145.0347  162.3267 C.3     1  UNL1        0.1340
      8 C         137.7253  138.3823  166.9666 C.3     1  UNL1        0.0521
      9 C         138.5110  139.4243  166.2269 C.ar    1  UNL1        0.0593
     10 C         137.9987  139.9664  164.9255 C.ar    1  UNL1        0.0147
     11 C         138.7845  141.0083  164.1859 C.ar    1  UNL1        0.0028
     12 C         140.0824  141.5081  164.7476 C.ar    1  UNL1        0.0206
     13 C         140.8681  142.5501  164.0079 C.ar    1  UNL1        0.0374
     14 C         142.1660  143.0497  164.5697 C.ar    1  UNL1        0.0031
     15 C         142.6783  142.5076  165.8711 C.ar    1  UNL1        0.0016
     16 C         141.8926  141.4657  166.6107 C.ar    1  UNL1        0.0191
     17 C         140.5947  140.9659  166.0490 C.ar    1  UNL1        0.0810
     18 N         139.8090  139.9240  166.7887 N.ar    1  UNL1       -0.2497
     19 C         141.5554  145.3778  158.7506 C.3     1  UNL1        0.0666
     20 C         141.7452  144.1780  157.8704 C.3     1  UNL1        0.0294
     21 C         142.9693  143.3242  158.0202 C.3     1  UNL1        0.0730
     22 N         143.1981  142.5571  159.2887 N.3     1  UNL1       -0.2720
     23 C         144.4644  142.8802  160.0252 C.3     1  UNL1        0.0768
     24 C         144.9757  142.2942  161.3080 C.3     1  UNL1        0.0434
     25 C         144.3471  141.2407  162.1709 C.ar    1  UNL1       -0.0231
     26 C         145.1929  140.9403  163.3728 C.ar    1  UNL1       -0.0013
     27 C         144.7436  139.9121  164.3681 C.ar    1  UNL1        0.0388
     28 C         143.4484  139.1841  164.1616 C.ar    1  UNL1        0.1640
     29 O         142.7518  138.1270  164.9661 O.2     1  UNL1       -0.4384
     30 C         141.4755  137.7739  164.2615 C.ar    1  UNL1        0.2062
     31 C         140.4683  136.7600  164.7169 C.3     1  UNL1        0.0950
     32 N         141.3833  138.6129  163.0215 N.ar    1  UNL1       -0.2124
     33 C         142.6026  139.4844  162.9597 C.ar    1  UNL1        0.1143
     34 C         143.0520  140.5127  161.9644 C.ar    1  UNL1       -0.0040
     35 C         142.0655  140.6586  160.8439 C.3     1  UNL1        0.0450
     36 C         142.1306  141.5684  159.6531 C.3     1  UNL1        0.0769
@<TRIPOS>BOND
     1     8     9    1
     2     9    10   ar
     3    10    11   ar
     4    11    12   ar
     5    12    13   ar
     6    13     2    1
     7     2     3   ar
     8     3     4   ar
     9     4     5   ar
    10     5     1    1
    11     1    19    1
    12    19    20    1
    13    20    21    1
    14    21    22    1
    15    22    23    1
    16    23    24    1
    17    24    25    1
    18    25    26   ar
    19    26    27   ar
    20    27    28   ar
    21    28    29   ar
    22    29    30   ar
    23    30    31    1
    24    30    32   ar
    25    32    33   ar
    26    33    34   ar
    27    34    35    1
    28    35    36    1
    29     5     6   ar
    30     6     7    1
    31    13    14   ar
    32    14    15   ar
    33    15    16   ar
    34    16    17   ar
    35    17    18   ar
    36    18     9   ar
    37    17    12   ar
    38     6     2   ar
    39    36    22    1
    40    34    25   ar
    41    33    28   ar
