@<TRIPOS>MOLECULE
*****
 38 41 0 0 0
SMALL
GASTEIGER

@<TRIPOS>ATOM
      1 C         141.8714  139.6255  159.3664 C.ar    1  UNL1        0.0730
      2 C         142.3393  140.8884  160.0269 C.ar    1  UNL1        0.0322
      3 C         143.5865  141.5688  159.5457 C.ar    1  UNL1        0.0653
      4 C         144.3657  140.9864  158.4039 C.ar    1  UNL1        0.1133
      5 N         143.8977  139.7236  157.7434 N.ar    1  UNL1       -0.2367
      6 C         142.6506  139.0431  158.2247 C.ar    1  UNL1        0.1476
      7 C         142.1827  137.7802  157.5641 C.2     1  UNL1        0.2617
      8 N         143.1688  136.7030  157.2219 N.am    1  UNL1       -0.3240
      9 O         140.7286  137.5947  157.2458 O.2     1  UNL1       -0.2687
     10 H         144.1231  136.8248  157.4308 H       1  UNL1        0.1453
     11 H         142.8616  135.8742  156.7884 H       1  UNL1        0.1453
     12 N         140.6242  138.9451  159.8476 N.pl3   1  UNL1       -0.2966
     13 H         140.0508  138.4605  159.2108 H       1  UNL1        0.1537
     14 C         141.1405  137.1634  164.7014 C.3     1  UNL1        0.0312
     15 C         140.5090  138.1120  163.7262 C.ar    1  UNL1       -0.0178
     16 C         140.8823  138.0542  162.2746 C.ar    1  UNL1        0.0301
     17 C         140.2508  139.0029  161.2993 C.ar    1  UNL1        0.1315
     18 N         139.2458  140.0094  161.7757 N.ar    1  UNL1       -0.2349
     19 C         138.8724  140.0673  163.2273 C.ar    1  UNL1        0.0605
     20 C         137.8674  141.0738  163.7037 C.3     1  UNL1        0.0521
     21 C         139.5040  139.1186  164.2025 C.ar    1  UNL1        0.0128
     22 C         139.1306  139.1764  165.6542 C.ar    1  UNL1        0.0405
     23 C         138.0038  138.4304  166.3051 C.ar    1  UNL1        0.1217
     24 N         137.9952  138.7834  167.7630 N.ar    1  UNL1       -0.1676
     25 N         139.1168  139.7476  168.0131 N.ar    1  UNL1       -0.2473
     26 C         139.4739  140.3611  169.3344 C.3     1  UNL1        0.1538
     27 C         139.8184  139.9905  166.7098 C.ar    1  UNL1        0.0967
     28 N         144.0544  142.8316  160.2062 N.pl3   1  UNL1       -0.3316
     29 H         144.2027  143.6427  159.6682 H       1  UNL1        0.1468
     30 C         144.2964  142.8587  161.6862 C.3     1  UNL1        0.0833
     31 C         145.2110  141.8498  162.3152 C.3     1  UNL1        0.0208
     32 C         145.4529  141.8768  163.7954 C.3     1  UNL1        0.0018
     33 C         144.7802  142.9127  164.6465 C.3     1  UNL1        0.0015
     34 C         143.8656  143.9216  164.0175 C.3     1  UNL1        0.0172
     35 C         143.6237  143.8946  162.5374 C.3     1  UNL1        0.0689
     36 N         142.7091  144.9035  161.9084 N.3     1  UNL1       -0.3209
     37 H         142.6612  144.7387  160.9029 H       1  UNL1        0.1189
     38 H         143.0676  145.8424  162.0824 H       1  UNL1        0.1189
@<TRIPOS>BOND
     1    14    15    1
     2    15    16   ar
     3    16    17   ar
     4    17    12    1
     5    12     1    1
     6     1     2   ar
     7     2     3   ar
     8     3    28    1
     9    30    28    1
    10    30    31    1
    11    31    32    1
    12    32    33    1
    13    33    34    1
    14    34    35    1
    15    35    36    1
    16     3     4   ar
    17     4     5   ar
    18     5     6   ar
    19     6     7    1
    20     7     8   am
    21     7     9    2
    22    17    18   ar
    23    18    19   ar
    24    19    20    1
    25    19    21   ar
    26    21    22    1
    27    22    23   ar
    28    23    24   ar
    29    24    25   ar
    30    25    26    1
    31    25    27   ar
    32    21    15   ar
    33    27    22   ar
    34     6     1   ar
    35    35    30    1
    36    12    13    1
    37    28    29    1
    38    36    37    1
    39    36    38    1
    40     8    10    1
    41     8    11    1
@<TRIPOS>MOLECULE
*****
 38 41 0 0 0
SMALL
GASTEIGER

@<TRIPOS>ATOM
      1 C         140.9636  141.8499  167.3490 C.ar    1  UNL1        0.0730
      2 C         141.7642  140.9228  166.4831 C.ar    1  UNL1        0.0322
      3 C         142.5345  139.7951  167.1035 C.ar    1  UNL1        0.0653
      4 C         142.5042  139.5945  168.5898 C.ar    1  UNL1        0.1133
      5 N         141.7037  140.5216  169.4556 N.ar    1  UNL1       -0.2367
      6 C         140.9333  141.6493  168.8351 C.ar    1  UNL1        0.1476
      7 C         140.1327  142.5763  169.7010 C.2     1  UNL1        0.2617
      8 N         139.2387  142.0201  170.7693 N.am    1  UNL1       -0.3240
      9 O         140.2262  144.0597  169.4985 O.2     1  UNL1       -0.2687
     10 H         139.1773  141.0465  170.9022 H       1  UNL1        0.1453
     11 H         138.7132  142.6285  171.3375 H       1  UNL1        0.1453
     12 N         140.1932  142.9776  166.7286 N.pl3   1  UNL1       -0.2966
     13 H         139.6270  143.5547  167.2904 H       1  UNL1        0.1537
     14 C         138.0374  142.8613  162.0022 C.3     1  UNL1        0.0312
     15 C         139.2077  143.1679  162.8890 C.ar    1  UNL1       -0.0178
     16 C         139.1153  142.9195  164.3653 C.ar    1  UNL1        0.0301
     17 C         140.2856  143.2260  165.2521 C.ar    1  UNL1        0.1315
     18 N         141.5483  143.7811  164.6625 N.ar    1  UNL1       -0.2349
     19 C         141.6406  144.0295  163.1862 C.ar    1  UNL1        0.0605
     20 C         142.9033  144.5845  162.5965 C.3     1  UNL1        0.0521
     21 C         140.4703  143.7229  162.2994 C.ar    1  UNL1        0.0128
     22 C         140.5627  143.9713  160.8229 C.ar    1  UNL1        0.0405
     23 C         141.0103  142.9815  159.7886 C.ar    1  UNL1        0.1217
     24 N         140.9479  143.6517  158.4481 N.ar    1  UNL1       -0.1676
     25 N         140.4618  145.0558  158.6539 N.ar    1  UNL1       -0.2473
     26 C         140.2509  146.0821  157.5805 C.3     1  UNL1        0.1538
     27 C         140.2238  145.2533  160.1217 C.ar    1  UNL1        0.0967
     28 N         143.3351  138.8681  166.2377 N.pl3   1  UNL1       -0.3316
     29 H         144.2069  138.5334  166.5495 H       1  UNL1        0.1468
     30 C         142.8074  138.4510  164.8970 C.3     1  UNL1        0.0833
     31 C         141.5117  137.7013  164.8011 C.3     1  UNL1        0.0208
     32 C         140.9840  137.2843  163.4603 C.3     1  UNL1        0.0018
     33 C         141.7520  137.6169  162.2155 C.3     1  UNL1        0.0015
     34 C         143.0476  138.3666  162.3114 C.3     1  UNL1        0.0172
     35 C         143.5754  138.7837  163.6521 C.3     1  UNL1        0.0689
     36 N         144.8710  139.5334  163.7481 N.3     1  UNL1       -0.3209
     37 H         145.0758  139.7346  164.7268 H       1  UNL1        0.1189
     38 H         144.7966  140.4085  163.2294 H       1  UNL1        0.1189
@<TRIPOS>BOND
     1    14    15    1
     2    15    16   ar
     3    16    17   ar
     4    17    12    1
     5    12     1    1
     6     1     2   ar
     7     2     3   ar
     8     3    28    1
     9    30    28    1
    10    30    31    1
    11    31    32    1
    12    32    33    1
    13    33    34    1
    14    34    35    1
    15    35    36    1
    16     3     4   ar
    17     4     5   ar
    18     5     6   ar
    19     6     7    1
    20     7     8   am
    21     7     9    2
    22    17    18   ar
    23    18    19   ar
    24    19    20    1
    25    19    21   ar
    26    21    22    1
    27    22    23   ar
    28    23    24   ar
    29    24    25   ar
    30    25    26    1
    31    25    27   ar
    32    21    15   ar
    33    27    22   ar
    34     6     1   ar
    35    35    30    1
    36    12    13    1
    37    28    29    1
    38    36    37    1
    39    36    38    1
    40     8    10    1
    41     8    11    1
@<TRIPOS>MOLECULE
*****
 38 41 0 0 0
SMALL
GASTEIGER

@<TRIPOS>ATOM
      1 C         142.7782  142.2364  160.2925 C.ar    1  UNL1        0.0730
      2 C         141.5551  142.8990  160.8540 C.ar    1  UNL1        0.0322
      3 C         140.7806  143.8750  160.0187 C.ar    1  UNL1        0.0653
      4 C         141.2292  144.1883  158.6220 C.ar    1  UNL1        0.1133
      5 N         142.4522  143.5257  158.0607 N.ar    1  UNL1       -0.2367
      6 C         143.2267  142.5497  158.8959 C.ar    1  UNL1        0.1476
      7 C         144.4497  141.8871  158.3345 C.2     1  UNL1        0.2617
      8 N         145.5935  142.7210  157.8382 N.am    1  UNL1       -0.3240
      9 O         144.5289  140.3906  158.2693 O.2     1  UNL1       -0.2687
     10 H         145.5416  143.7032  157.8810 H       1  UNL1        0.1453
     11 H         146.3962  142.2861  157.4697 H       1  UNL1        0.1453
     12 N         143.5527  141.2604  161.1278 N.pl3   1  UNL1       -0.2966
     13 H         144.3295  140.7924  160.7447 H       1  UNL1        0.1537
     14 C         143.5736  142.6213  166.1426 C.3     1  UNL1        0.0312
     15 C         143.1541  141.6781  165.0542 C.ar    1  UNL1       -0.0178
     16 C         143.5631  141.9408  163.6352 C.ar    1  UNL1        0.0301
     17 C         143.1437  140.9976  162.5469 C.ar    1  UNL1        0.1315
     18 N         142.3153  139.7917  162.8776 N.ar    1  UNL1       -0.2349
     19 C         141.9063  139.5289  164.2966 C.ar    1  UNL1        0.0605
     20 C         141.0779  138.3229  164.6274 C.3     1  UNL1        0.0521
     21 C         142.3257  140.4722  165.3849 C.ar    1  UNL1        0.0128
     22 C         141.9167  140.2093  166.8040 C.ar    1  UNL1        0.0405
     23 C         142.7091  139.4451  167.8229 C.ar    1  UNL1        0.1217
     24 N         141.9256  139.4281  169.1019 N.ar    1  UNL1       -0.1676
     25 N         140.6489  140.1819  168.8735 N.ar    1  UNL1       -0.2473
     26 C         139.5677  140.4123  169.8872 C.3     1  UNL1        0.1538
     27 C         140.6435  140.6647  167.4533 C.ar    1  UNL1        0.0967
     28 N         139.5576  144.5376  160.5801 N.pl3   1  UNL1       -0.3316
     29 H         139.0306  145.1529  160.0208 H       1  UNL1        0.1468
     30 C         139.1377  144.2626  161.9936 C.3     1  UNL1        0.0833
     31 C         138.1268  143.1923  162.2810 C.3     1  UNL1        0.0208
     32 C         137.7069  142.9174  163.6946 C.3     1  UNL1        0.0018
     33 C         138.2978  143.7128  164.8207 C.3     1  UNL1        0.0015
     34 C         139.3086  144.7831  164.5333 C.3     1  UNL1        0.0172
     35 C         139.7286  145.0580  163.1198 C.3     1  UNL1        0.0689
     36 N         140.7394  146.1284  162.8324 N.3     1  UNL1       -0.3209
     37 H         140.9053  146.1783  161.8272 H       1  UNL1        0.1189
     38 H         141.6131  145.9082  163.3106 H       1  UNL1        0.1189
@<TRIPOS>BOND
     1    14    15    1
     2    15    16   ar
     3    16    17   ar
     4    17    12    1
     5    12     1    1
     6     1     2   ar
     7     2     3   ar
     8     3    28    1
     9    30    28    1
    10    30    31    1
    11    31    32    1
    12    32    33    1
    13    33    34    1
    14    34    35    1
    15    35    36    1
    16     3     4   ar
    17     4     5   ar
    18     5     6   ar
    19     6     7    1
    20     7     8   am
    21     7     9    2
    22    17    18   ar
    23    18    19   ar
    24    19    20    1
    25    19    21   ar
    26    21    22    1
    27    22    23   ar
    28    23    24   ar
    29    24    25   ar
    30    25    26    1
    31    25    27   ar
    32    21    15   ar
    33    27    22   ar
    34     6     1   ar
    35    35    30    1
    36    12    13    1
    37    28    29    1
    38    36    37    1
    39    36    38    1
    40     8    10    1
    41     8    11    1
@<TRIPOS>MOLECULE
*****
 38 41 0 0 0
SMALL
GASTEIGER

@<TRIPOS>ATOM
      1 C         138.4227  141.9697  158.8108 C.ar    1  UNL1        0.0730
      2 C         139.4007  142.8350  159.5490 C.ar    1  UNL1        0.0322
      3 C         140.0416  144.0013  158.8569 C.ar    1  UNL1        0.0653
      4 C         139.7046  144.3022  157.4265 C.ar    1  UNL1        0.1133
      5 N         138.7266  143.4369  156.6884 N.ar    1  UNL1       -0.2367
      6 C         138.0857  142.2707  157.3805 C.ar    1  UNL1        0.1476
      7 C         137.1078  141.4054  156.6423 C.2     1  UNL1        0.2617
      8 N         135.8803  142.0137  156.0314 N.am    1  UNL1       -0.3240
      9 O         137.3574  139.9318  156.5149 O.2     1  UNL1       -0.2687
     10 H         135.7164  142.9808  156.1150 H       1  UNL1        0.1453
     11 H         135.2384  141.4458  155.5469 H       1  UNL1        0.1453
     12 N         137.7818  140.8034  159.5029 N.pl3   1  UNL1       -0.2966
     13 H         137.1974  140.1923  158.9988 H       1  UNL1        0.1537
     14 C         139.4496  137.7283  163.3451 C.3     1  UNL1        0.0312
     15 C         138.8653  139.0307  162.8843 C.ar    1  UNL1       -0.0178
     16 C         138.6157  139.2659  161.4241 C.ar    1  UNL1        0.0301
     17 C         138.0314  140.5683  160.9633 C.ar    1  UNL1        0.1315
     18 N         137.6968  141.6355  161.9627 N.ar    1  UNL1       -0.2349
     19 C         137.9464  141.4004  163.4230 C.ar    1  UNL1        0.0605
     20 C         137.6117  142.4677  164.4225 C.3     1  UNL1        0.0521
     21 C         138.5307  140.0980  163.8838 C.ar    1  UNL1        0.0128
     22 C         138.7803  139.8628  165.3441 C.ar    1  UNL1        0.0405
     23 C         137.8822  139.1125  166.2824 C.ar    1  UNL1        0.1217
     24 N         138.5187  139.1227  167.6407 N.ar    1  UNL1       -0.1676
     25 N         139.8101  139.8794  167.5418 N.ar    1  UNL1       -0.2473
     26 C         140.7711  140.1339  168.6650 C.3     1  UNL1        0.1538
     27 C         139.9718  140.3368  166.1224 C.ar    1  UNL1        0.0967
     28 N         141.0195  144.8666  159.5951 N.pl3   1  UNL1       -0.3316
     29 H         141.5794  145.5084  159.1013 H       1  UNL1        0.1468
     30 C         141.1443  144.7540  161.0856 C.3     1  UNL1        0.0833
     31 C         142.1980  143.8708  161.6854 C.3     1  UNL1        0.0208
     32 C         142.3228  143.7582  163.1760 C.3     1  UNL1        0.0018
     33 C         141.3940  144.5289  164.0667 C.3     1  UNL1        0.0015
     34 C         140.3403  145.4121  163.4669 C.3     1  UNL1        0.0172
     35 C         140.2155  145.5247  161.9764 C.3     1  UNL1        0.0689
     36 N         139.1619  146.4079  161.3765 N.3     1  UNL1       -0.3209
     37 H         139.2207  146.3645  160.3592 H       1  UNL1        0.1189
     38 H         139.3081  147.3691  161.6849 H       1  UNL1        0.1189
@<TRIPOS>BOND
     1    14    15    1
     2    15    16   ar
     3    16    17   ar
     4    17    12    1
     5    12     1    1
     6     1     2   ar
     7     2     3   ar
     8     3    28    1
     9    30    28    1
    10    30    31    1
    11    31    32    1
    12    32    33    1
    13    33    34    1
    14    34    35    1
    15    35    36    1
    16     3     4   ar
    17     4     5   ar
    18     5     6   ar
    19     6     7    1
    20     7     8   am
    21     7     9    2
    22    17    18   ar
    23    18    19   ar
    24    19    20    1
    25    19    21   ar
    26    21    22    1
    27    22    23   ar
    28    23    24   ar
    29    24    25   ar
    30    25    26    1
    31    25    27   ar
    32    21    15   ar
    33    27    22   ar
    34     6     1   ar
    35    35    30    1
    36    12    13    1
    37    28    29    1
    38    36    37    1
    39    36    38    1
    40     8    10    1
    41     8    11    1
@<TRIPOS>MOLECULE
*****
 38 41 0 0 0
SMALL
GASTEIGER

@<TRIPOS>ATOM
      1 C         142.6169  141.4828  160.4119 C.ar    1  UNL1        0.0730
      2 C         141.6360  142.5000  160.9154 C.ar    1  UNL1        0.0322
      3 C         140.7288  143.2076  159.9530 C.ar    1  UNL1        0.0653
      4 C         140.8024  142.8980  158.4871 C.ar    1  UNL1        0.1133
      5 N         141.7832  141.8809  157.9836 N.ar    1  UNL1       -0.2367
      6 C         142.6904  141.1733  158.9460 C.ar    1  UNL1        0.1476
      7 C         143.6713  140.1562  158.4425 C.2     1  UNL1        0.2617
      8 N         144.7408  140.5618  157.4722 N.am    1  UNL1       -0.3240
      9 O         143.5826  138.7335  158.9094 O.2     1  UNL1       -0.2687
     10 H         144.7990  141.4956  157.1657 H       1  UNL1        0.1453
     11 H         145.3845  139.8943  157.1417 H       1  UNL1        0.1453
     12 N         143.5241  140.7753  161.3743 N.pl3   1  UNL1       -0.2966
     13 H         144.3940  140.4305  161.0681 H       1  UNL1        0.1537
     14 C         141.0968  137.9970  165.0334 C.3     1  UNL1        0.0312
     15 C         141.8924  139.2039  164.6329 C.ar    1  UNL1       -0.0178
     16 C         142.3104  139.3862  163.2039 C.ar    1  UNL1        0.0301
     17 C         143.1061  140.5930  162.8033 C.ar    1  UNL1        0.1315
     18 N         143.4836  141.6176  163.8317 N.ar    1  UNL1       -0.2349
     19 C         143.0656  141.4353  165.2607 C.ar    1  UNL1        0.0605
     20 C         143.4432  142.4599  166.2891 C.3     1  UNL1        0.0521
     21 C         142.2700  140.2284  165.6612 C.ar    1  UNL1        0.0128
     22 C         141.8519  140.0462  167.0903 C.ar    1  UNL1        0.0405
     23 C         142.6675  139.4028  168.1723 C.ar    1  UNL1        0.1217
     24 N         141.8645  139.4343  169.4389 N.ar    1  UNL1       -0.1676
     25 N         140.5526  140.0972  169.1396 N.ar    1  UNL1       -0.2473
     26 C         139.4433  140.3395  170.1198 C.3     1  UNL1        0.1538
     27 C         140.5448  140.4754  167.6881 C.ar    1  UNL1        0.0967
     28 N         139.7480  144.2246  160.4564 N.pl3   1  UNL1       -0.3316
     29 H         139.4757  144.9740  159.8788 H       1  UNL1        0.1468
     30 C         139.1819  144.1000  161.8399 C.3     1  UNL1        0.0833
     31 C         138.1185  143.0817  162.1263 C.3     1  UNL1        0.0208
     32 C         137.5525  142.9571  163.5098 C.3     1  UNL1        0.0018
     33 C         138.0499  143.8508  164.6069 C.3     1  UNL1        0.0015
     34 C         139.1134  144.8692  164.3206 C.3     1  UNL1        0.0172
     35 C         139.6794  144.9938  162.9371 C.3     1  UNL1        0.0689
     36 N         140.7428  146.0122  162.6507 N.3     1  UNL1       -0.3209
     37 H         141.0092  145.9583  161.6676 H       1  UNL1        0.1189
     38 H         141.5581  145.8258  163.2346 H       1  UNL1        0.1189
@<TRIPOS>BOND
     1    14    15    1
     2    15    16   ar
     3    16    17   ar
     4    17    12    1
     5    12     1    1
     6     1     2   ar
     7     2     3   ar
     8     3    28    1
     9    30    28    1
    10    30    31    1
    11    31    32    1
    12    32    33    1
    13    33    34    1
    14    34    35    1
    15    35    36    1
    16     3     4   ar
    17     4     5   ar
    18     5     6   ar
    19     6     7    1
    20     7     8   am
    21     7     9    2
    22    17    18   ar
    23    18    19   ar
    24    19    20    1
    25    19    21   ar
    26    21    22    1
    27    22    23   ar
    28    23    24   ar
    29    24    25   ar
    30    25    26    1
    31    25    27   ar
    32    21    15   ar
    33    27    22   ar
    34     6     1   ar
    35    35    30    1
    36    12    13    1
    37    28    29    1
    38    36    37    1
    39    36    38    1
    40     8    10    1
    41     8    11    1
@<TRIPOS>MOLECULE
*****
 38 41 0 0 0
SMALL
GASTEIGER

@<TRIPOS>ATOM
      1 C         141.6117  141.7796  167.6909 C.ar    1  UNL1        0.0730
      2 C         140.5537  141.0604  166.9076 C.ar    1  UNL1        0.0322
      3 C         139.5391  140.2147  167.6185 C.ar    1  UNL1        0.0653
      4 C         139.5825  140.0881  169.1125 C.ar    1  UNL1        0.1133
      5 N         140.6406  140.8073  169.8957 N.ar    1  UNL1       -0.2367
      6 C         141.6551  141.6530  169.1848 C.ar    1  UNL1        0.1476
      7 C         142.7132  142.3722  169.9681 C.2     1  UNL1        0.2617
      8 N         142.4120  142.8766  171.3482 N.am    1  UNL1       -0.3240
      9 O         144.0724  142.5870  169.3711 O.2     1  UNL1       -0.2687
     10 H         141.5199  142.7356  171.7400 H       1  UNL1        0.1453
     11 H         143.1064  143.3486  171.8623 H       1  UNL1        0.1453
     12 N         142.6263  142.6254  166.9800 N.pl3   1  UNL1       -0.2966
     13 H         143.1517  143.2898  167.4817 H       1  UNL1        0.1537
     14 C         144.5291  139.8958  162.9889 C.3     1  UNL1        0.0312
     15 C         143.7918  141.0940  163.5092 C.ar    1  UNL1       -0.0178
     16 C         143.5777  141.2606  164.9844 C.ar    1  UNL1        0.0301
     17 C         142.8404  142.4588  165.5047 C.ar    1  UNL1        0.1315
     18 N         142.3171  143.4904  164.5497 N.ar    1  UNL1       -0.2349
     19 C         142.5312  143.3238  163.0745 C.ar    1  UNL1        0.0605
     20 C         142.0079  144.3554  162.1194 C.3     1  UNL1        0.0521
     21 C         143.2685  142.1256  162.5542 C.ar    1  UNL1        0.0128
     22 C         143.4826  141.9590  161.0789 C.ar    1  UNL1        0.0405
     23 C         142.5703  141.2377  160.1315 C.ar    1  UNL1        0.1217
     24 N         143.1704  141.3174  158.7591 N.ar    1  UNL1       -0.1676
     25 N         144.4536  142.0879  158.8583 N.ar    1  UNL1       -0.2473
     26 C         145.3810  142.4061  157.7231 C.3     1  UNL1        0.1538
     27 C         144.6465  142.4844  160.2920 C.ar    1  UNL1        0.0967
     28 N         138.4811  139.4955  166.8353 N.pl3   1  UNL1       -0.3316
     29 H         137.6228  139.2682  167.2607 H       1  UNL1        0.1468
     30 C         138.7307  139.1227  165.4040 C.3     1  UNL1        0.0833
     31 C         139.4382  137.8416  165.0751 C.3     1  UNL1        0.0208
     32 C         139.6878  137.4688  163.6437 C.3     1  UNL1        0.0018
     33 C         139.2300  138.3771  162.5413 C.3     1  UNL1        0.0015
     34 C         138.5225  139.6582  162.8702 C.3     1  UNL1        0.0172
     35 C         138.2729  140.0310  164.3015 C.3     1  UNL1        0.0689
     36 N         137.5654  141.3122  164.6304 N.3     1  UNL1       -0.3209
     37 H         137.4821  141.4043  165.6428 H       1  UNL1        0.1189
     38 H         136.6351  141.3039  164.2121 H       1  UNL1        0.1189
@<TRIPOS>BOND
     1    14    15    1
     2    15    16   ar
     3    16    17   ar
     4    17    12    1
     5    12     1    1
     6     1     2   ar
     7     2     3   ar
     8     3    28    1
     9    30    28    1
    10    30    31    1
    11    31    32    1
    12    32    33    1
    13    33    34    1
    14    34    35    1
    15    35    36    1
    16     3     4   ar
    17     4     5   ar
    18     5     6   ar
    19     6     7    1
    20     7     8   am
    21     7     9    2
    22    17    18   ar
    23    18    19   ar
    24    19    20    1
    25    19    21   ar
    26    21    22    1
    27    22    23   ar
    28    23    24   ar
    29    24    25   ar
    30    25    26    1
    31    25    27   ar
    32    21    15   ar
    33    27    22   ar
    34     6     1   ar
    35    35    30    1
    36    12    13    1
    37    28    29    1
    38    36    37    1
    39    36    38    1
    40     8    10    1
    41     8    11    1
@<TRIPOS>MOLECULE
*****
 38 41 0 0 0
SMALL
GASTEIGER

@<TRIPOS>ATOM
      1 C         140.0432  139.5473  160.3920 C.ar    1  UNL1        0.0730
      2 C         139.3371  140.7151  161.0147 C.ar    1  UNL1        0.0322
      3 C         138.6258  141.7109  160.1472 C.ar    1  UNL1        0.0653
      4 C         138.6207  141.5389  158.6571 C.ar    1  UNL1        0.1133
      5 N         139.3268  140.3711  158.0345 N.ar    1  UNL1       -0.2367
      6 C         140.0380  139.3753  158.9020 C.ar    1  UNL1        0.1476
      7 C         140.7442  138.2075  158.2793 C.2     1  UNL1        0.2617
      8 N         140.0276  137.3395  157.2878 N.am    1  UNL1       -0.3240
      9 O         142.1668  137.9076  158.6482 O.2     1  UNL1       -0.2687
     10 H         139.0939  137.5363  157.0456 H       1  UNL1        0.1453
     11 H         140.4910  136.5731  156.8791 H       1  UNL1        0.1453
     12 N         140.7545  138.5515  161.2595 N.pl3   1  UNL1       -0.2966
     13 H         140.9593  137.6535  160.9119 H       1  UNL1        0.1537
     14 C         139.4859  139.4065  166.2254 C.3     1  UNL1        0.0312
     15 C         140.5193  139.3515  165.1396 C.ar    1  UNL1       -0.0178
     16 C         140.1202  138.9790  163.7425 C.ar    1  UNL1        0.0301
     17 C         141.1536  138.9240  162.6567 C.ar    1  UNL1        0.1315
     18 N         142.5862  139.2414  162.9680 N.ar    1  UNL1       -0.2349
     19 C         142.9853  139.6139  164.3651 C.ar    1  UNL1        0.0605
     20 C         144.4179  139.9314  164.6764 C.3     1  UNL1        0.0521
     21 C         141.9519  139.6689  165.4509 C.ar    1  UNL1        0.0128
     22 C         142.3510  140.0414  166.8480 C.ar    1  UNL1        0.0405
     23 C         142.7359  139.0868  167.9392 C.ar    1  UNL1        0.1217
     24 N         143.0581  139.8893  169.1648 N.ar    1  UNL1       -0.1676
     25 N         142.8724  141.3400  168.8311 N.ar    1  UNL1       -0.2473
     26 C         143.0862  142.4939  169.7652 C.3     1  UNL1        0.1538
     27 C         142.4354  141.4339  167.3993 C.ar    1  UNL1        0.0967
     28 N         137.9197  142.8787  160.7698 N.pl3   1  UNL1       -0.3316
     29 H         137.2365  143.3702  160.2591 H       1  UNL1        0.1468
     30 C         138.2546  143.2976  162.1706 C.3     1  UNL1        0.0833
     31 C         139.1982  144.4395  162.4067 C.3     1  UNL1        0.0208
     32 C         139.5331  144.8584  163.8076 C.3     1  UNL1        0.0018
     33 C         138.9243  144.1354  164.9724 C.3     1  UNL1        0.0015
     34 C         137.9807  142.9936  164.7363 C.3     1  UNL1        0.0172
     35 C         137.6458  142.5746  163.3355 C.3     1  UNL1        0.0689
     36 N         136.7022  141.4328  163.0995 N.3     1  UNL1       -0.3209
     37 H         136.5897  141.2865  162.0963 H       1  UNL1        0.1189
     38 H         135.7963  141.6488  163.5153 H       1  UNL1        0.1189
@<TRIPOS>BOND
     1    14    15    1
     2    15    16   ar
     3    16    17   ar
     4    17    12    1
     5    12     1    1
     6     1     2   ar
     7     2     3   ar
     8     3    28    1
     9    30    28    1
    10    30    31    1
    11    31    32    1
    12    32    33    1
    13    33    34    1
    14    34    35    1
    15    35    36    1
    16     3     4   ar
    17     4     5   ar
    18     5     6   ar
    19     6     7    1
    20     7     8   am
    21     7     9    2
    22    17    18   ar
    23    18    19   ar
    24    19    20    1
    25    19    21   ar
    26    21    22    1
    27    22    23   ar
    28    23    24   ar
    29    24    25   ar
    30    25    26    1
    31    25    27   ar
    32    21    15   ar
    33    27    22   ar
    34     6     1   ar
    35    35    30    1
    36    12    13    1
    37    28    29    1
    38    36    37    1
    39    36    38    1
    40     8    10    1
    41     8    11    1
@<TRIPOS>MOLECULE
*****
 38 41 0 0 0
SMALL
GASTEIGER

@<TRIPOS>ATOM
      1 C         140.4393  143.1711  160.4713 C.ar    1  UNL1        0.0730
      2 C         139.7005  141.9607  160.9601 C.ar    1  UNL1        0.0322
      3 C         138.6377  141.3351  160.1062 C.ar    1  UNL1        0.0653
      4 C         138.3138  141.9200  158.7634 C.ar    1  UNL1        0.1133
      5 N         139.0526  143.1304  158.2746 N.ar    1  UNL1       -0.2367
      6 C         140.1154  143.7560  159.1285 C.ar    1  UNL1        0.1476
      7 C         140.8543  144.9665  158.6396 C.2     1  UNL1        0.2617
      8 N         140.1356  146.0107  157.8377 N.am    1  UNL1       -0.3240
      9 O         142.3118  145.1326  158.9527 O.2     1  UNL1       -0.2687
     10 H         139.1790  145.9016  157.6323 H       1  UNL1        0.1453
     11 H         140.6205  146.8051  157.5169 H       1  UNL1        0.1453
     12 N         141.5021  143.7967  161.3252 N.pl3   1  UNL1       -0.2966
     13 H         142.0305  144.5518  160.9790 H       1  UNL1        0.1537
     14 C         140.0629  143.3065  166.2939 C.3     1  UNL1        0.0312
     15 C         141.0402  143.0267  165.1909 C.ar    1  UNL1       -0.0178
     16 C         140.7826  143.5516  163.8096 C.ar    1  UNL1        0.0301
     17 C         141.7598  143.2717  162.7065 C.ar    1  UNL1        0.1315
     18 N         142.9946  142.4669  162.9848 N.ar    1  UNL1       -0.2349
     19 C         143.2522  141.9420  164.3661 C.ar    1  UNL1        0.0605
     20 C         144.4871  141.1371  164.6444 C.3     1  UNL1        0.0521
     21 C         142.2750  142.2219  165.4691 C.ar    1  UNL1        0.0128
     22 C         142.5326  141.6969  166.8505 C.ar    1  UNL1        0.0405
     23 C         143.2437  142.4253  167.9522 C.ar    1  UNL1        0.1217
     24 N         143.2750  141.5299  169.1552 N.ar    1  UNL1       -0.1676
     25 N         142.5832  140.2480  168.7970 N.ar    1  UNL1       -0.2473
     26 C         142.3850  139.0698  169.7040 C.3     1  UNL1        0.1538
     27 C         142.1244  140.3512  167.3726 C.ar    1  UNL1        0.0967
     28 N         137.8988  140.1247  160.5950 N.pl3   1  UNL1       -0.3316
     29 H         137.1775  139.7350  160.0501 H       1  UNL1        0.1468
     30 C         138.2591  139.5081  161.9141 C.3     1  UNL1        0.0833
     31 C         139.1275  138.2858  161.9585 C.3     1  UNL1        0.0208
     32 C         139.4877  137.6693  163.2776 C.3     1  UNL1        0.0018
     33 C         138.9796  138.2750  164.5523 C.3     1  UNL1        0.0015
     34 C         138.1113  139.4973  164.5080 C.3     1  UNL1        0.0172
     35 C         137.7510  140.1139  163.1889 C.3     1  UNL1        0.0689
     36 N         136.8827  141.3362  163.1445 N.3     1  UNL1       -0.3209
     37 H         136.7406  141.6172  162.1744 H       1  UNL1        0.1189
     38 H         137.3359  142.0940  163.6551 H       1  UNL1        0.1189
@<TRIPOS>BOND
     1    14    15    1
     2    15    16   ar
     3    16    17   ar
     4    17    12    1
     5    12     1    1
     6     1     2   ar
     7     2     3   ar
     8     3    28    1
     9    30    28    1
    10    30    31    1
    11    31    32    1
    12    32    33    1
    13    33    34    1
    14    34    35    1
    15    35    36    1
    16     3     4   ar
    17     4     5   ar
    18     5     6   ar
    19     6     7    1
    20     7     8   am
    21     7     9    2
    22    17    18   ar
    23    18    19   ar
    24    19    20    1
    25    19    21   ar
    26    21    22    1
    27    22    23   ar
    28    23    24   ar
    29    24    25   ar
    30    25    26    1
    31    25    27   ar
    32    21    15   ar
    33    27    22   ar
    34     6     1   ar
    35    35    30    1
    36    12    13    1
    37    28    29    1
    38    36    37    1
    39    36    38    1
    40     8    10    1
    41     8    11    1
@<TRIPOS>MOLECULE
*****
 38 41 0 0 0
SMALL
GASTEIGER

@<TRIPOS>ATOM
      1 C         139.5458  141.9407  160.6060 C.ar    1  UNL1        0.0730
      2 C         140.7943  142.6473  161.0443 C.ar    1  UNL1        0.0322
      3 C         141.8433  143.0115  160.0358 C.ar    1  UNL1        0.0653
      4 C         141.6437  142.6692  158.5891 C.ar    1  UNL1        0.1133
      5 N         140.3953  141.9626  158.1508 N.ar    1  UNL1       -0.2367
      6 C         139.3463  141.5984  159.1593 C.ar    1  UNL1        0.1476
      7 C         138.0978  140.8918  158.7210 C.2     1  UNL1        0.2617
      8 N         137.4543  141.2475  157.4136 N.am    1  UNL1       -0.3240
      9 O         137.4929  139.8294  159.5902 O.2     1  UNL1       -0.2687
     10 H         137.8514  141.9448  156.8432 H       1  UNL1        0.1453
     11 H         136.6349  140.7838  157.1260 H       1  UNL1        0.1453
     12 N         138.4969  141.5764  161.6145 N.pl3   1  UNL1       -0.2966
     13 H         137.5478  141.5591  161.3533 H       1  UNL1        0.1537
     14 C         139.2155  138.0514  165.3639 C.3     1  UNL1        0.0312
     15 C         139.2533  139.4759  164.8956 C.ar    1  UNL1       -0.0178
     16 C         138.8562  139.8139  163.4892 C.ar    1  UNL1        0.0301
     17 C         138.8940  141.2385  163.0210 C.ar    1  UNL1        0.1315
     18 N         139.3288  142.3250  163.9592 N.ar    1  UNL1       -0.2349
     19 C         139.7258  141.9871  165.3656 C.ar    1  UNL1        0.0605
     20 C         140.1607  143.0737  166.3039 C.3     1  UNL1        0.0521
     21 C         139.6881  140.5625  165.8338 C.ar    1  UNL1        0.0128
     22 C         140.0852  140.2246  167.2404 C.ar    1  UNL1        0.0405
     23 C         139.1554  140.0809  168.4086 C.ar    1  UNL1        0.1217
     24 N         139.9774  139.7385  169.6158 N.ar    1  UNL1       -0.1676
     25 N         141.4152  139.6705  169.1935 N.ar    1  UNL1       -0.2473
     26 C         142.5815  139.3572  170.0832 C.3     1  UNL1        0.1538
     27 C         141.4817  139.9709  167.7254 C.ar    1  UNL1        0.0967
     28 N         143.0917  143.7181  160.4741 N.pl3   1  UNL1       -0.3316
     29 H         143.4881  144.4163  159.9042 H       1  UNL1        0.1468
     30 C         143.7364  143.3609  161.7805 C.3     1  UNL1        0.0833
     31 C         144.6750  142.1935  161.8593 C.3     1  UNL1        0.0208
     32 C         145.3197  141.8363  163.1658 C.3     1  UNL1        0.0018
     33 C         145.0256  142.6465  164.3935 C.3     1  UNL1        0.0015
     34 C         144.0870  143.8138  164.3147 C.3     1  UNL1        0.0172
     35 C         143.4423  144.1710  163.0082 C.3     1  UNL1        0.0689
     36 N         142.5037  145.3384  162.9294 N.3     1  UNL1       -0.3209
     37 H         142.1612  145.4353  161.9736 H       1  UNL1        0.1189
     38 H         142.9956  146.1893  163.2023 H       1  UNL1        0.1189
@<TRIPOS>BOND
     1    14    15    1
     2    15    16   ar
     3    16    17   ar
     4    17    12    1
     5    12     1    1
     6     1     2   ar
     7     2     3   ar
     8     3    28    1
     9    30    28    1
    10    30    31    1
    11    31    32    1
    12    32    33    1
    13    33    34    1
    14    34    35    1
    15    35    36    1
    16     3     4   ar
    17     4     5   ar
    18     5     6   ar
    19     6     7    1
    20     7     8   am
    21     7     9    2
    22    17    18   ar
    23    18    19   ar
    24    19    20    1
    25    19    21   ar
    26    21    22    1
    27    22    23   ar
    28    23    24   ar
    29    24    25   ar
    30    25    26    1
    31    25    27   ar
    32    21    15   ar
    33    27    22   ar
    34     6     1   ar
    35    35    30    1
    36    12    13    1
    37    28    29    1
    38    36    37    1
    39    36    38    1
    40     8    10    1
    41     8    11    1
