@<TRIPOS>MOLECULE
*****
 35 39 0 0 0
SMALL
GASTEIGER

@<TRIPOS>ATOM
      1 C         141.9738  138.5430  159.0048 C.ar    1  UNL1        0.1655
      2 N         141.7781  139.8556  159.7039 N.ar    1  UNL1       -0.2219
      3 C         142.6499  139.8653  160.9245 C.ar    1  UNL1        0.1344
      4 C         142.8698  140.8951  161.9927 C.ar    1  UNL1        0.1049
      5 C         143.8243  140.6182  163.1163 C.ar    1  UNL1        0.0392
      6 C         144.5588  139.3115  163.1715 C.ar    1  UNL1        0.0751
      7 N         144.3389  138.2818  162.1033 N.ar    1  UNL1       -0.3361
      8 C         143.3845  138.5586  160.9797 C.ar    1  UNL1        0.1615
      9 N         142.9666  137.7414  159.7934 N.ar    1  UNL1       -0.2081
     10 H         144.8210  137.4242  162.1396 H       1  UNL1        0.1675
     11 C         143.0678  134.9831  155.8669 C.ar    1  UNL1        0.0504
     12 C         142.1043  134.9014  154.7203 C.ar    1  UNL1        0.0162
     13 C         140.9545  135.8611  154.6369 C.ar    1  UNL1        0.0185
     14 C         140.7682  136.9025  155.7002 C.ar    1  UNL1        0.0602
     15 C         141.7317  136.9842  156.8469 C.ar    1  UNL1        0.0214
     16 C         142.8815  136.0245  156.9303 C.ar    1  UNL1        0.0163
     17 C         141.2958  138.1083  157.7394 C.ar    1  UNL1        0.0545
     18 C         140.0630  138.7213  157.1443 C.ar    1  UNL1        0.0790
     19 N         139.7369  137.9760  155.8840 N.ar    1  UNL1       -0.3240
     20 C         138.5822  138.2553  154.9682 C.3     1  UNL1        0.1305
     21 C         145.1632  131.6976  156.6186 C.3     1  UNL1        0.0949
     22 C         144.0134  132.6573  156.5352 C.2     1  UNL1        0.2266
     23 O         142.6594  132.2509  157.0368 O.2     1  UNL1       -0.2748
     24 N         144.2176  134.0234  155.9503 N.am    1  UNL1       -0.2839
     25 H         145.1063  134.2901  155.6211 H       1  UNL1        0.1549
     26 N         142.1353  142.2017  161.9374 N.ar    1  UNL1       -0.2272
     27 C         141.4406  142.8719  163.0856 C.ar    1  UNL1        0.0987
     28 C         140.8424  144.1520  162.5820 C.ar    1  UNL1        0.0283
     29 C         141.1674  144.2729  161.1227 C.ar    1  UNL1        0.0782
     30 C         140.7641  145.4011  160.2202 C.3     1  UNL1        0.0537
     31 N         141.9664  143.0676  160.7243 N.ar    1  UNL1       -0.1697
     32 C         140.0571  145.1380  163.3951 C.3     1  UNL1        0.1020
     33 N         138.7608  144.7254  164.0270 N.3     1  UNL1       -0.2664
     34 C         138.5363  144.9495  165.4931 C.3     1  UNL1        0.0899
     35 C         137.6890  144.0888  163.1929 C.3     1  UNL1        0.0899
@<TRIPOS>BOND
     1    21    22    1
     2    22    23    2
     3    22    24   am
     4    24    11    1
     5    11    12   ar
     6    12    13   ar
     7    13    14   ar
     8    14    15   ar
     9    15    16   ar
    10    15    17   ar
    11    17     1    1
    12     1     2   ar
    13     2     3   ar
    14     3     4   ar
    15     4    26    1
    16    26    27   ar
    17    27    28   ar
    18    28    32    1
    19    32    33    1
    20    33    34    1
    21    33    35    1
    22    28    29   ar
    23    29    30    1
    24    29    31   ar
    25     4     5   ar
    26     5     6   ar
    27     6     7   ar
    28     7     8   ar
    29     8     9   ar
    30    17    18   ar
    31    18    19   ar
    32    19    20    1
    33    16    11   ar
    34     9     1   ar
    35    19    14   ar
    36     8     3    1
    37    31    26   ar
    38    24    25    1
    39     7    10    1
@<TRIPOS>MOLECULE
*****
 35 39 0 0 0
SMALL
GASTEIGER

@<TRIPOS>ATOM
      1 C         141.9313  138.5621  159.4918 C.ar    1  UNL1        0.1655
      2 N         141.2530  138.9808  160.7625 N.ar    1  UNL1       -0.2219
      3 C         142.3075  139.1561  161.8148 C.ar    1  UNL1        0.1344
      4 C         142.2285  139.5583  163.2577 C.ar    1  UNL1        0.1049
      5 C         143.4794  139.6500  164.0804 C.ar    1  UNL1        0.0392
      6 C         144.8094  139.3396  163.4600 C.ar    1  UNL1        0.0751
      7 N         144.8884  138.9375  162.0171 N.ar    1  UNL1       -0.3361
      8 C         143.6375  138.8457  161.1945 C.ar    1  UNL1        0.1615
      9 N         143.4050  138.4786  159.7588 N.ar    1  UNL1       -0.2081
     10 H         145.7613  138.7337  161.6100 H       1  UNL1        0.1675
     11 C         142.9764  135.3274  156.0046 C.ar    1  UNL1        0.0504
     12 C         142.0208  135.3870  154.8500 C.ar    1  UNL1        0.0162
     13 C         140.8920  136.3747  154.8609 C.ar    1  UNL1        0.0185
     14 C         140.7188  137.3029  156.0264 C.ar    1  UNL1        0.0602
     15 C         141.6744  137.2433  157.1810 C.ar    1  UNL1        0.0214
     16 C         142.8032  136.2556  157.1701 C.ar    1  UNL1        0.0163
     17 C         141.2548  138.2770  158.1838 C.ar    1  UNL1        0.0545
     18 C         140.0398  138.9753  157.6489 C.ar    1  UNL1        0.0790
     19 N         139.7086  138.3733  156.3155 N.ar    1  UNL1       -0.3240
     20 C         138.5674  138.7717  155.4272 C.3     1  UNL1        0.1305
     21 C         145.0119  131.9536  156.4781 C.3     1  UNL1        0.0949
     22 C         143.8831  132.9414  156.4890 C.2     1  UNL1        0.2266
     23 O         142.5321  132.5307  156.9952 O.2     1  UNL1       -0.2748
     24 N         144.1053  134.3397  155.9937 N.am    1  UNL1       -0.2839
     25 H         144.9920  134.6092  155.6616 H       1  UNL1        0.1549
     26 N         140.8985  139.8687  163.8780 N.ar    1  UNL1       -0.2272
     27 C         140.0533  141.0749  163.5941 C.ar    1  UNL1        0.0987
     28 C         138.8126  140.9791  164.4317 C.ar    1  UNL1        0.0283
     29 C         138.8910  139.7137  165.2332 C.ar    1  UNL1        0.0782
     30 C         137.8611  139.2210  166.2061 C.3     1  UNL1        0.0537
     31 N         140.1802  139.0274  164.8910 N.ar    1  UNL1       -0.1697
     32 C         137.6905  141.9741  164.4624 C.3     1  UNL1        0.1020
     33 N         137.9281  143.3864  164.0164 N.3     1  UNL1       -0.2664
     34 C         138.2054  144.4565  165.0303 C.3     1  UNL1        0.0899
     35 C         137.8883  143.7286  162.5566 C.3     1  UNL1        0.0899
@<TRIPOS>BOND
     1    21    22    1
     2    22    23    2
     3    22    24   am
     4    24    11    1
     5    11    12   ar
     6    12    13   ar
     7    13    14   ar
     8    14    15   ar
     9    15    16   ar
    10    15    17   ar
    11    17     1    1
    12     1     2   ar
    13     2     3   ar
    14     3     4   ar
    15     4    26    1
    16    26    27   ar
    17    27    28   ar
    18    28    32    1
    19    32    33    1
    20    33    34    1
    21    33    35    1
    22    28    29   ar
    23    29    30    1
    24    29    31   ar
    25     4     5   ar
    26     5     6   ar
    27     6     7   ar
    28     7     8   ar
    29     8     9   ar
    30    17    18   ar
    31    18    19   ar
    32    19    20    1
    33    16    11   ar
    34     9     1   ar
    35    19    14   ar
    36     8     3    1
    37    31    26   ar
    38    24    25    1
    39     7    10    1
@<TRIPOS>MOLECULE
*****
 35 39 0 0 0
SMALL
GASTEIGER

@<TRIPOS>ATOM
      1 C         139.3313  141.6258  159.9791 C.ar    1  UNL1        0.1655
      2 N         140.0707  141.3708  161.2590 N.ar    1  UNL1       -0.2219
      3 C         139.4852  142.2580  162.3173 C.ar    1  UNL1        0.1344
      4 C         139.8126  142.4381  163.7700 C.ar    1  UNL1        0.1049
      5 C         139.0387  143.4216  164.5969 C.ar    1  UNL1        0.0392
      6 C         137.9374  144.2250  163.9710 C.ar    1  UNL1        0.0751
      7 N         137.6100  144.0449  162.5184 N.ar    1  UNL1       -0.3361
      8 C         138.3839  143.0613  161.6915 C.ar    1  UNL1        0.1615
      9 N         138.2888  142.6707  160.2464 N.ar    1  UNL1       -0.2081
     10 H         136.8872  144.5722  162.1076 H       1  UNL1        0.1675
     11 C         136.4389  140.9749  156.1156 C.ar    1  UNL1        0.0504
     12 C         137.1167  140.2385  154.9984 C.ar    1  UNL1        0.0162
     13 C         138.5400  139.7900  155.1506 C.ar    1  UNL1        0.0185
     14 C         139.2854  140.0780  156.4199 C.ar    1  UNL1        0.0602
     15 C         138.6076  140.8145  157.5371 C.ar    1  UNL1        0.0214
     16 C         137.1843  141.2629  157.3849 C.ar    1  UNL1        0.0163
     17 C         139.5890  140.9540  158.6630 C.ar    1  UNL1        0.0545
     18 C         140.8733  140.3037  158.2416 C.ar    1  UNL1        0.0790
     19 N         140.6857  139.7623  156.8553 N.ar    1  UNL1       -0.3240
     20 C         141.7173  139.0333  156.0464 C.3     1  UNL1        0.1305
     21 C         132.4757  140.8776  155.9319 C.3     1  UNL1        0.0949
     22 C         133.8990  140.4291  156.0840 C.2     1  UNL1        0.2266
     23 O         134.2056  138.9863  156.3568 O.2     1  UNL1       -0.2748
     24 N         135.0156  141.4234  155.9634 N.am    1  UNL1       -0.2839
     25 H         134.8143  142.3703  155.7844 H       1  UNL1        0.1549
     26 N         140.9139  141.6347  164.3958 N.ar    1  UNL1       -0.2272
     27 C         140.8517  140.9361  165.7217 C.ar    1  UNL1        0.0987
     28 C         142.1702  140.2584  165.9510 C.ar    1  UNL1        0.0283
     29 C         143.0472  140.5383  164.7667 C.ar    1  UNL1        0.0782
     30 C         144.4537  140.0527  164.5770 C.3     1  UNL1        0.0537
     31 N         142.2708  141.3888  163.8056 N.ar    1  UNL1       -0.1697
     32 C         142.5456  139.4440  167.1534 C.3     1  UNL1        0.1020
     33 N         142.5892  140.0843  168.5091 N.3     1  UNL1       -0.2664
     34 C         142.3274  139.2617  169.7358 C.3     1  UNL1        0.0899
     35 C         142.8944  141.5472  168.6381 C.3     1  UNL1        0.0899
@<TRIPOS>BOND
     1    21    22    1
     2    22    23    2
     3    22    24   am
     4    24    11    1
     5    11    12   ar
     6    12    13   ar
     7    13    14   ar
     8    14    15   ar
     9    15    16   ar
    10    15    17   ar
    11    17     1    1
    12     1     2   ar
    13     2     3   ar
    14     3     4   ar
    15     4    26    1
    16    26    27   ar
    17    27    28   ar
    18    28    32    1
    19    32    33    1
    20    33    34    1
    21    33    35    1
    22    28    29   ar
    23    29    30    1
    24    29    31   ar
    25     4     5   ar
    26     5     6   ar
    27     6     7   ar
    28     7     8   ar
    29     8     9   ar
    30    17    18   ar
    31    18    19   ar
    32    19    20    1
    33    16    11   ar
    34     9     1   ar
    35    19    14   ar
    36     8     3    1
    37    31    26   ar
    38    24    25    1
    39     7    10    1
@<TRIPOS>MOLECULE
*****
 35 39 0 0 0
SMALL
GASTEIGER

@<TRIPOS>ATOM
      1 C         143.3595  141.3004  162.5767 C.ar    1  UNL1        0.1655
      2 N         142.5159  140.8761  163.7421 N.ar    1  UNL1       -0.2219
      3 C         143.3236  139.9283  164.5783 C.ar    1  UNL1        0.1344
      4 C         143.0098  139.1914  165.8466 C.ar    1  UNL1        0.1049
      5 C         144.0388  138.2930  166.4663 C.ar    1  UNL1        0.0392
      6 C         145.3817  138.1315  165.8176 C.ar    1  UNL1        0.0751
      7 N         145.6954  138.8684  164.5494 N.ar    1  UNL1       -0.3361
      8 C         144.6664  139.7668  163.9297 C.ar    1  UNL1        0.1615
      9 N         144.6886  140.6148  162.6926 N.ar    1  UNL1       -0.2081
     10 H         146.5768  138.7624  164.1237 H       1  UNL1        0.1675
     11 C         140.2950  145.0848  162.6332 C.ar    1  UNL1        0.0504
     12 C         140.1775  145.7587  161.2983 C.ar    1  UNL1        0.0162
     13 C         140.9629  145.2462  160.1277 C.ar    1  UNL1        0.0185
     14 C         141.8658  144.0597  160.2919 C.ar    1  UNL1        0.0602
     15 C         141.9833  143.3857  161.6267 C.ar    1  UNL1        0.0214
     16 C         141.1979  143.8983  162.7974 C.ar    1  UNL1        0.0163
     17 C         142.9466  142.2445  161.4867 C.ar    1  UNL1        0.0545
     18 C         143.4245  142.2131  160.0652 C.ar    1  UNL1        0.0790
     19 N         142.7565  143.3350  159.3268 N.ar    1  UNL1       -0.3240
     20 C         142.9460  143.6729  157.8777 C.3     1  UNL1        0.1305
     21 C         138.0242  145.1472  165.8873 C.3     1  UNL1        0.0949
     22 C         138.8096  144.6347  164.7167 C.2     1  UNL1        0.2266
     23 O         138.8949  143.1594  164.4588 O.2     1  UNL1       -0.2748
     24 N         139.5096  145.5973  163.8039 N.am    1  UNL1       -0.2839
     25 H         139.4536  146.5655  163.9731 H       1  UNL1        0.1549
     26 N         141.6669  139.3529  166.4952 N.ar    1  UNL1       -0.2272
     27 C         141.4044  139.9700  167.8369 C.ar    1  UNL1        0.0987
     28 C         139.9260  139.9242  168.0870 C.ar    1  UNL1        0.0283
     29 C         139.2750  139.2788  166.8997 C.ar    1  UNL1        0.0782
     30 C         137.8059  139.0301  166.7266 C.3     1  UNL1        0.0537
     31 N         140.3509  138.9257  165.9160 N.ar    1  UNL1       -0.1697
     32 C         139.2224  140.4342  169.3095 C.3     1  UNL1        0.1020
     33 N         139.9722  141.2491  170.3213 N.3     1  UNL1       -0.2664
     34 C         139.8447  142.7437  170.3239 C.3     1  UNL1        0.0899
     35 C         140.8495  140.5695  171.3304 C.3     1  UNL1        0.0899
@<TRIPOS>BOND
     1    21    22    1
     2    22    23    2
     3    22    24   am
     4    24    11    1
     5    11    12   ar
     6    12    13   ar
     7    13    14   ar
     8    14    15   ar
     9    15    16   ar
    10    15    17   ar
    11    17     1    1
    12     1     2   ar
    13     2     3   ar
    14     3     4   ar
    15     4    26    1
    16    26    27   ar
    17    27    28   ar
    18    28    32    1
    19    32    33    1
    20    33    34    1
    21    33    35    1
    22    28    29   ar
    23    29    30    1
    24    29    31   ar
    25     4     5   ar
    26     5     6   ar
    27     6     7   ar
    28     7     8   ar
    29     8     9   ar
    30    17    18   ar
    31    18    19   ar
    32    19    20    1
    33    16    11   ar
    34     9     1   ar
    35    19    14   ar
    36     8     3    1
    37    31    26   ar
    38    24    25    1
    39     7    10    1
@<TRIPOS>MOLECULE
*****
 35 39 0 0 0
SMALL
GASTEIGER

@<TRIPOS>ATOM
      1 C         140.2541  138.7489  160.6643 C.ar    1  UNL1        0.1655
      2 N         139.5737  139.0885  159.3714 N.ar    1  UNL1       -0.2219
      3 C         140.5143  138.7557  158.2513 C.ar    1  UNL1        0.1344
      4 C         140.3848  138.8788  156.7620 C.ar    1  UNL1        0.1049
      5 C         141.5171  138.4566  155.8733 C.ar    1  UNL1        0.0392
      6 C         142.7788  137.9114  156.4741 C.ar    1  UNL1        0.0751
      7 N         142.9082  137.7883  157.9634 N.ar    1  UNL1       -0.3361
      8 C         141.7759  138.2105  158.8520 C.ar    1  UNL1        0.1615
      9 N         141.6151  138.2062  160.3433 N.ar    1  UNL1       -0.2081
     10 H         143.7363  137.4305  158.3576 H       1  UNL1        0.1675
     11 C         138.5131  142.7027  162.9121 C.ar    1  UNL1        0.0504
     12 C         138.0268  142.4157  164.3017 C.ar    1  UNL1        0.0162
     13 C         138.1102  141.0231  164.8528 C.ar    1  UNL1        0.0185
     14 C         138.6799  139.9175  164.0142 C.ar    1  UNL1        0.0602
     15 C         139.1662  140.2046  162.6246 C.ar    1  UNL1        0.0214
     16 C         139.0828  141.5972  162.0735 C.ar    1  UNL1        0.0163
     17 C         139.6751  138.9215  162.0373 C.ar    1  UNL1        0.0545
     18 C         139.5033  137.8416  163.0640 C.ar    1  UNL1        0.0790
     19 N         138.8883  138.4571  164.2858 N.ar    1  UNL1       -0.3240
     20 C         138.5423  137.7385  165.5561 C.3     1  UNL1        0.1305
     21 C         139.5725  146.3505  161.7626 C.3     1  UNL1        0.0949
     22 C         139.6559  144.9579  162.3137 C.2     1  UNL1        0.2266
     23 O         140.9656  144.4279  162.8175 O.2     1  UNL1       -0.2748
     24 N         138.4297  144.0953  162.3610 N.am    1  UNL1       -0.2839
     25 H         137.5701  144.4432  162.0303 H       1  UNL1        0.1549
     26 N         139.1231  139.4241  156.1613 N.ar    1  UNL1       -0.2272
     27 C         138.5546  140.7922  156.3958 C.ar    1  UNL1        0.0987
     28 C         137.2885  140.9106  155.6002 C.ar    1  UNL1        0.0283
     29 C         137.0746  139.6157  154.8739 C.ar    1  UNL1        0.0782
     30 C         135.9282  139.2958  153.9611 C.3     1  UNL1        0.0537
     31 N         138.2085  138.6970  155.2207 N.ar    1  UNL1       -0.1697
     32 C         136.3935  142.1129  155.5411 C.3     1  UNL1        0.1020
     33 N         136.6715  143.2071  154.5535 N.3     1  UNL1       -0.2664
     34 C         136.3351  143.0130  153.1047 C.3     1  UNL1        0.0899
     35 C         137.2860  144.4953  155.0146 C.3     1  UNL1        0.0899
@<TRIPOS>BOND
     1    21    22    1
     2    22    23    2
     3    22    24   am
     4    24    11    1
     5    11    12   ar
     6    12    13   ar
     7    13    14   ar
     8    14    15   ar
     9    15    16   ar
    10    15    17   ar
    11    17     1    1
    12     1     2   ar
    13     2     3   ar
    14     3     4   ar
    15     4    26    1
    16    26    27   ar
    17    27    28   ar
    18    28    32    1
    19    32    33    1
    20    33    34    1
    21    33    35    1
    22    28    29   ar
    23    29    30    1
    24    29    31   ar
    25     4     5   ar
    26     5     6   ar
    27     6     7   ar
    28     7     8   ar
    29     8     9   ar
    30    17    18   ar
    31    18    19   ar
    32    19    20    1
    33    16    11   ar
    34     9     1   ar
    35    19    14   ar
    36     8     3    1
    37    31    26   ar
    38    24    25    1
    39     7    10    1
@<TRIPOS>MOLECULE
*****
 35 39 0 0 0
SMALL
GASTEIGER

@<TRIPOS>ATOM
      1 C         138.9688  139.4401  159.9437 C.ar    1  UNL1        0.1655
      2 N         139.2167  140.4090  161.0616 N.ar    1  UNL1       -0.2219
      3 C         139.1671  139.6485  162.3536 C.ar    1  UNL1        0.1344
      4 C         139.3396  140.0804  163.7797 C.ar    1  UNL1        0.1049
      5 C         139.2337  139.0735  164.8864 C.ar    1  UNL1        0.0392
      6 C         138.9552  137.6345  164.5669 C.ar    1  UNL1        0.0751
      7 N         138.7827  137.2027  163.1409 N.ar    1  UNL1       -0.3361
      8 C         138.8887  138.2097  162.0342 C.ar    1  UNL1        0.1615
      9 N         138.7661  138.0808  160.5448 N.ar    1  UNL1       -0.2081
     10 H         138.5999  136.2583  162.9312 H       1  UNL1        0.1675
     11 C         140.7125  137.0344  156.0851 C.ar    1  UNL1        0.0504
     12 C         140.4463  137.7414  154.7893 C.ar    1  UNL1        0.0162
     13 C         139.7115  139.0491  154.7856 C.ar    1  UNL1        0.0185
     14 C         139.2428  139.6497  156.0776 C.ar    1  UNL1        0.0602
     15 C         139.5090  138.9427  157.3735 C.ar    1  UNL1        0.0214
     16 C         140.2438  137.6350  157.3772 C.ar    1  UNL1        0.0163
     17 C         138.9304  139.7721  158.4814 C.ar    1  UNL1        0.0545
     18 C         138.3067  140.9917  157.8703 C.ar    1  UNL1        0.0790
     19 N         138.4998  140.9161  156.3847 N.ar    1  UNL1       -0.3240
     20 C         138.0319  141.9289  155.3821 C.3     1  UNL1        0.1305
     21 C         143.6660  134.3932  156.3103 C.3     1  UNL1        0.0949
     22 C         142.9312  135.7009  156.3066 C.2     1  UNL1        0.2266
     23 O         143.6803  136.9827  156.5206 O.2     1  UNL1       -0.2748
     24 N         141.4473  135.7267  156.0889 N.am    1  UNL1       -0.2839
     25 H         140.9557  134.8854  155.9484 H       1  UNL1        0.1549
     26 N         139.6181  141.5193  164.0991 N.ar    1  UNL1       -0.2272
     27 C         140.8677  142.2734  163.7528 C.ar    1  UNL1        0.0987
     28 C         140.7179  143.6770  164.2605 C.ar    1  UNL1        0.0283
     29 C         139.3757  143.7902  164.9205 C.ar    1  UNL1        0.0782
     30 C         138.8121  145.0209  165.5669 C.3     1  UNL1        0.0537
     31 N         138.6960  142.4567  164.8208 N.ar    1  UNL1       -0.1697
     32 C         141.7321  144.7744  164.1309 C.3     1  UNL1        0.1020
     33 N         143.1692  144.4395  163.8614 N.3     1  UNL1       -0.2664
     34 C         143.6885  144.4415  162.4542 C.3     1  UNL1        0.0899
     35 C         144.0868  144.1027  164.9990 C.3     1  UNL1        0.0899
@<TRIPOS>BOND
     1    21    22    1
     2    22    23    2
     3    22    24   am
     4    24    11    1
     5    11    12   ar
     6    12    13   ar
     7    13    14   ar
     8    14    15   ar
     9    15    16   ar
    10    15    17   ar
    11    17     1    1
    12     1     2   ar
    13     2     3   ar
    14     3     4   ar
    15     4    26    1
    16    26    27   ar
    17    27    28   ar
    18    28    32    1
    19    32    33    1
    20    33    34    1
    21    33    35    1
    22    28    29   ar
    23    29    30    1
    24    29    31   ar
    25     4     5   ar
    26     5     6   ar
    27     6     7   ar
    28     7     8   ar
    29     8     9   ar
    30    17    18   ar
    31    18    19   ar
    32    19    20    1
    33    16    11   ar
    34     9     1   ar
    35    19    14   ar
    36     8     3    1
    37    31    26   ar
    38    24    25    1
    39     7    10    1
@<TRIPOS>MOLECULE
*****
 35 39 0 0 0
SMALL
GASTEIGER

@<TRIPOS>ATOM
      1 C         139.7587  141.8610  159.3103 C.ar    1  UNL1        0.1655
      2 N         139.7198  141.5341  160.7737 N.ar    1  UNL1       -0.2219
      3 C         139.6722  142.8251  161.5359 C.ar    1  UNL1        0.1344
      4 C         139.6214  143.1218  163.0054 C.ar    1  UNL1        0.1049
      5 C         139.5801  144.5432  163.4826 C.ar    1  UNL1        0.0392
      6 C         139.5895  145.6680  162.4902 C.ar    1  UNL1        0.0751
      7 N         139.6403  145.3713  161.0208 N.ar    1  UNL1       -0.3361
      8 C         139.6816  143.9498  160.5436 C.ar    1  UNL1        0.1615
      9 N         139.7351  143.3540  159.1681 N.ar    1  UNL1       -0.2081
     10 H         139.6465  146.1095  160.3695 H       1  UNL1        0.1675
     11 C         136.4716  140.7360  155.8977 C.ar    1  UNL1        0.0504
     12 C         136.9498  139.6692  154.9580 C.ar    1  UNL1        0.0162
     13 C         138.3148  139.0723  155.1330 C.ar    1  UNL1        0.0185
     14 C         139.2015  139.5422  156.2479 C.ar    1  UNL1        0.0602
     15 C         138.7232  140.6090  157.1876 C.ar    1  UNL1        0.0214
     16 C         137.3583  141.2059  157.0125 C.ar    1  UNL1        0.0163
     17 C         139.8118  140.8690  158.1864 C.ar    1  UNL1        0.0545
     18 C         140.9629  139.9629  157.8638 C.ar    1  UNL1        0.0790
     19 N         140.5856  139.1429  156.6658 N.ar    1  UNL1       -0.3240
     20 C         141.4422  138.1056  156.0021 C.3     1  UNL1        0.1305
     21 C         132.5210  141.1097  155.8431 C.3     1  UNL1        0.0949
     22 C         133.8859  140.5128  156.0182 C.2     1  UNL1        0.2266
     23 O         134.0302  139.0958  156.4889 O.2     1  UNL1       -0.2748
     24 N         135.1066  141.3328  155.7226 N.am    1  UNL1       -0.2839
     25 H         135.0120  142.2628  155.4137 H       1  UNL1        0.1549
     26 N         139.6119  141.9969  163.9977 N.ar    1  UNL1       -0.2272
     27 C         140.7850  141.5213  164.8024 C.ar    1  UNL1        0.0987
     28 C         140.3259  140.3806  165.6616 C.ar    1  UNL1        0.0283
     29 C         138.8690  140.1514  165.3879 C.ar    1  UNL1        0.0782
     30 C         138.0051  139.1066  166.0298 C.3     1  UNL1        0.0537
     31 N         138.4278  141.1503  164.3595 N.ar    1  UNL1       -0.1697
     32 C         141.1746  139.6054  166.6253 C.3     1  UNL1        0.1020
     33 N         141.3034  140.0636  168.0478 N.3     1  UNL1       -0.2664
     34 C         142.6580  140.3560  168.6218 C.3     1  UNL1        0.0899
     35 C         140.0776  140.2294  168.8962 C.3     1  UNL1        0.0899
@<TRIPOS>BOND
     1    21    22    1
     2    22    23    2
     3    22    24   am
     4    24    11    1
     5    11    12   ar
     6    12    13   ar
     7    13    14   ar
     8    14    15   ar
     9    15    16   ar
    10    15    17   ar
    11    17     1    1
    12     1     2   ar
    13     2     3   ar
    14     3     4   ar
    15     4    26    1
    16    26    27   ar
    17    27    28   ar
    18    28    32    1
    19    32    33    1
    20    33    34    1
    21    33    35    1
    22    28    29   ar
    23    29    30    1
    24    29    31   ar
    25     4     5   ar
    26     5     6   ar
    27     6     7   ar
    28     7     8   ar
    29     8     9   ar
    30    17    18   ar
    31    18    19   ar
    32    19    20    1
    33    16    11   ar
    34     9     1   ar
    35    19    14   ar
    36     8     3    1
    37    31    26   ar
    38    24    25    1
    39     7    10    1
@<TRIPOS>MOLECULE
*****
 35 39 0 0 0
SMALL
GASTEIGER

@<TRIPOS>ATOM
      1 C         141.6633  139.3825  160.1438 C.ar    1  UNL1        0.1655
      2 N         141.9369  139.9497  161.5052 N.ar    1  UNL1       -0.2219
      3 C         140.9729  139.3252  162.4699 C.ar    1  UNL1        0.1344
      4 C         140.7744  139.5014  163.9462 C.ar    1  UNL1        0.1049
      5 C         139.7066  138.7243  164.6574 C.ar    1  UNL1        0.0392
      6 C         138.8371  137.7711  163.8921 C.ar    1  UNL1        0.0751
      7 N         139.0356  137.5950  162.4159 N.ar    1  UNL1       -0.3361
      8 C         140.1035  138.3720  161.7047 C.ar    1  UNL1        0.1615
      9 N         140.5302  138.4074  160.2671 N.ar    1  UNL1       -0.2081
     10 H         138.4650  136.9693  161.9137 H       1  UNL1        0.1675
     11 C         143.2586  136.5600  156.5099 C.ar    1  UNL1        0.0504
     12 C         143.9485  137.3376  155.4286 C.ar    1  UNL1        0.0162
     13 C         144.0833  138.8270  155.5453 C.ar    1  UNL1        0.0185
     14 C         143.5283  139.5387  156.7434 C.ar    1  UNL1        0.0602
     15 C         142.8384  138.7611  157.8247 C.ar    1  UNL1        0.0214
     16 C         142.7035  137.2717  157.7079 C.ar    1  UNL1        0.0163
     17 C         142.3944  139.7294  158.8808 C.ar    1  UNL1        0.0545
     18 C         142.8100  141.1054  158.4522 C.ar    1  UNL1        0.0790
     19 N         143.5108  140.9876  157.1312 N.ar    1  UNL1       -0.3240
     20 C         144.0919  142.1198  156.3373 C.3     1  UNL1        0.1305
     21 C         141.7779  132.9870  155.6204 C.3     1  UNL1        0.0949
     22 C         141.9128  134.4763  155.7371 C.2     1  UNL1        0.2266
     23 O         140.8366  135.3714  155.1978 O.2     1  UNL1       -0.2748
     24 N         143.1237  135.0706  156.3932 N.am    1  UNL1       -0.2839
     25 H         143.8300  134.4832  156.7472 H       1  UNL1        0.1549
     26 N         141.6439  140.4546  164.7113 N.ar    1  UNL1       -0.2272
     27 C         141.6542  140.6375  166.2001 C.ar    1  UNL1        0.0987
     28 C         142.6724  141.6883  166.5310 C.ar    1  UNL1        0.0283
     29 C         143.2912  142.1547  165.2467 C.ar    1  UNL1        0.0782
     30 C         144.3584  143.2000  165.1108 C.3     1  UNL1        0.0537
     31 N         142.6556  141.3922  164.1221 N.ar    1  UNL1       -0.1697
     32 C         143.0120  142.1853  167.9049 C.3     1  UNL1        0.1020
     33 N         141.9905  142.1162  169.0011 N.3     1  UNL1       -0.2664
     34 C         142.2007  141.1939  170.1651 C.3     1  UNL1        0.0899
     35 C         140.7588  142.9695  168.9333 C.3     1  UNL1        0.0899
@<TRIPOS>BOND
     1    21    22    1
     2    22    23    2
     3    22    24   am
     4    24    11    1
     5    11    12   ar
     6    12    13   ar
     7    13    14   ar
     8    14    15   ar
     9    15    16   ar
    10    15    17   ar
    11    17     1    1
    12     1     2   ar
    13     2     3   ar
    14     3     4   ar
    15     4    26    1
    16    26    27   ar
    17    27    28   ar
    18    28    32    1
    19    32    33    1
    20    33    34    1
    21    33    35    1
    22    28    29   ar
    23    29    30    1
    24    29    31   ar
    25     4     5   ar
    26     5     6   ar
    27     6     7   ar
    28     7     8   ar
    29     8     9   ar
    30    17    18   ar
    31    18    19   ar
    32    19    20    1
    33    16    11   ar
    34     9     1   ar
    35    19    14   ar
    36     8     3    1
    37    31    26   ar
    38    24    25    1
    39     7    10    1
@<TRIPOS>MOLECULE
*****
 35 39 0 0 0
SMALL
GASTEIGER

@<TRIPOS>ATOM
      1 C         140.0705  144.0674  159.7636 C.ar    1  UNL1        0.1655
      2 N         140.0782  142.8712  160.6687 N.ar    1  UNL1       -0.2219
      3 C         139.7562  143.3386  162.0572 C.ar    1  UNL1        0.1344
      4 C         139.6245  142.6038  163.3583 C.ar    1  UNL1        0.1049
      5 C         139.2861  143.3539  164.6124 C.ar    1  UNL1        0.0392
      6 C         139.0794  144.8389  164.5654 C.ar    1  UNL1        0.0751
      7 N         139.2111  145.5736  163.2643 N.ar    1  UNL1       -0.3361
      8 C         139.5495  144.8235  162.0102 C.ar    1  UNL1        0.1615
      9 N         139.7437  145.2739  160.5927 N.ar    1  UNL1       -0.2081
     10 H         139.0754  146.5482  163.2335 H       1  UNL1        0.1675
     11 C         137.2779  142.6873  156.0202 C.ar    1  UNL1        0.0504
     12 C         137.9598  142.8501  154.6941 C.ar    1  UNL1        0.0162
     13 C         139.3577  143.3904  154.6309 C.ar    1  UNL1        0.0185
     14 C         140.0737  143.7678  155.8938 C.ar    1  UNL1        0.0602
     15 C         139.3918  143.6049  157.2198 C.ar    1  UNL1        0.0214
     16 C         137.9939  143.0647  157.2830 C.ar    1  UNL1        0.0163
     17 C         140.3419  144.0585  158.2884 C.ar    1  UNL1        0.0545
     18 C         141.6109  144.5017  157.6227 C.ar    1  UNL1        0.0790
     19 N         141.4451  144.3220  156.1428 N.ar    1  UNL1       -0.3240
     20 C         142.4708  144.6406  155.0956 C.3     1  UNL1        0.1305
     21 C         134.2416  140.1317  156.0193 C.3     1  UNL1        0.0949
     22 C         135.6395  140.6719  155.9561 C.2     1  UNL1        0.2266
     23 O         136.7970  139.7370  155.7656 O.2     1  UNL1       -0.2748
     24 N         135.8800  142.1470  156.0834 N.am    1  UNL1       -0.2839
     25 H         135.1203  142.7606  156.2085 H       1  UNL1        0.1549
     26 N         139.8312  141.1188  163.4052 N.ar    1  UNL1       -0.2272
     27 C         141.0347  140.3798  162.8998 C.ar    1  UNL1        0.0987
     28 C         140.8181  138.9164  163.1480 C.ar    1  UNL1        0.0283
     29 C         139.4808  138.7511  163.8068 C.ar    1  UNL1        0.0782
     30 C         138.8620  137.4525  164.2320 C.3     1  UNL1        0.0537
     31 N         138.8708  140.1122  163.9658 N.ar    1  UNL1       -0.1697
     32 C         141.7715  137.8123  162.7987 C.3     1  UNL1        0.1020
     33 N         142.9050  138.0719  161.8512 N.3     1  UNL1       -0.2664
     34 C         142.7743  137.6969  160.4048 C.3     1  UNL1        0.0899
     35 C         144.1691  138.7065  162.3502 C.3     1  UNL1        0.0899
@<TRIPOS>BOND
     1    21    22    1
     2    22    23    2
     3    22    24   am
     4    24    11    1
     5    11    12   ar
     6    12    13   ar
     7    13    14   ar
     8    14    15   ar
     9    15    16   ar
    10    15    17   ar
    11    17     1    1
    12     1     2   ar
    13     2     3   ar
    14     3     4   ar
    15     4    26    1
    16    26    27   ar
    17    27    28   ar
    18    28    32    1
    19    32    33    1
    20    33    34    1
    21    33    35    1
    22    28    29   ar
    23    29    30    1
    24    29    31   ar
    25     4     5   ar
    26     5     6   ar
    27     6     7   ar
    28     7     8   ar
    29     8     9   ar
    30    17    18   ar
    31    18    19   ar
    32    19    20    1
    33    16    11   ar
    34     9     1   ar
    35    19    14   ar
    36     8     3    1
    37    31    26   ar
    38    24    25    1
    39     7    10    1
