@<TRIPOS>MOLECULE
*****
 46 53 0 0 0
SMALL
GASTEIGER

@<TRIPOS>ATOM
      1 C         140.8605  141.1715  161.0580 C.3     1  UNL1        0.0235
      2 C         140.2440  140.0101  160.3361 C.3     1  UNL1        0.0257
      3 C         140.9954  139.3298  159.2304 C.3     1  UNL1        0.0940
      4 N         142.3633  139.8108  158.8466 N.am    1  UNL1       -0.2761
      5 C         143.1147  139.1305  157.7409 C.2     1  UNL1        0.2490
      6 O         144.4827  139.6115  157.3570 O.2     1  UNL1       -0.2699
      7 C         142.9799  140.9722  159.5685 C.3     1  UNL1        0.0940
      8 C         142.2285  141.6525  160.6741 C.3     1  UNL1        0.0257
      9 C         141.0215  142.3022  162.0305 C.ar    1  UNL1       -0.0226
     10 C         140.9622  143.7210  161.5474 C.ar    1  UNL1       -0.0043
     11 C         141.1231  144.8518  162.5199 C.ar    1  UNL1       -0.0003
     12 C         141.3433  144.5635  163.9754 C.ar    1  UNL1       -0.0000
     13 C         141.4026  143.1446  164.4584 C.ar    1  UNL1       -0.0003
     14 C         141.2417  142.0140  163.4859 C.ar    1  UNL1       -0.0043
     15 C         142.4981  137.9691  157.0190 C.ar    1  UNL1        0.0537
     16 C         141.3373  138.1908  156.0953 C.ar    1  UNL1        0.0045
     17 C         140.7207  137.0294  155.3735 C.ar    1  UNL1        0.0002
     18 C         141.2650  135.6463  155.5755 C.ar    1  UNL1        0.0031
     19 C         142.4258  135.4246  156.4992 C.ar    1  UNL1        0.0373
     20 C         143.0424  136.5860  157.2210 C.ar    1  UNL1        0.0076
     21 C         142.9701  134.0415  156.7011 C.ar    1  UNL1        0.1806
     22 N         142.2198  132.7596  156.4919 N.ar    1  UNL1       -0.1084
     23 N         143.1462  131.6232  156.8092 N.ar    1  UNL1       -0.0229
     24 N         144.4690  132.2029  157.2145 N.ar    1  UNL1       -0.0464
     25 N         144.3602  133.6975  157.1477 N.ar    1  UNL1       -0.2388
     26 H         145.0755  134.3399  157.3597 H       1  UNL1        0.1923
     27 C         139.5485  141.0831  161.7795 C.3     1  UNL1        0.0215
     28 C         138.2756  141.4323  161.0669 C.3     1  UNL1        0.0723
     29 C         138.2438  141.3709  160.9260 C.3     1  UNL1        0.0893
     30 C         138.7309  142.6635  160.3410 C.3     1  UNL1        0.0386
     31 C         138.7335  142.8599  158.8539 C.3     1  UNL1        0.0594
     32 C         138.5625  142.6206  157.3830 C.3     1  UNL1        0.0174
     33 C         138.0016  141.2415  157.1999 C.3     1  UNL1        0.0174
     34 C         137.8258  140.6285  158.5576 C.3     1  UNL1        0.0594
     35 C         137.7593  140.2749  160.0238 C.3     1  UNL1        0.0386
     36 N         138.2781  141.6287  159.5799 N.3     1  UNL1       -0.2751
     37 C         137.6856  143.5650  162.8154 C.3     1  UNL1        0.0718
     38 C         137.9685  142.2317  163.4416 C.ar    1  UNL1        0.1207
     39 N         138.0697  141.5968  164.7968 N.ar    1  UNL1       -0.2309
     40 C         138.4050  140.1473  164.6059 C.ar    1  UNL1        0.0983
     41 C         138.6274  139.0314  165.5833 C.ar    1  UNL1        0.0206
     42 C         138.9558  137.6544  165.0873 C.ar    1  UNL1        0.0016
     43 C         139.0619  137.3934  163.6140 C.ar    1  UNL1        0.0016
     44 C         138.8394  138.5092  162.6367 C.ar    1  UNL1        0.0188
     45 C         138.5110  139.8862  163.1326 C.ar    1  UNL1        0.0785
     46 N         138.2413  141.1744  162.4131 N.ar    1  UNL1       -0.3167
@<TRIPOS>BOND
     1    37    38    1
     2    38    39   ar
     3    39    40   ar
     4    40    41   ar
     5    41    42   ar
     6    42    43   ar
     7    43    44   ar
     8    44    45   ar
     9    45    46   ar
    10    46    29    1
    11    29    30    1
    12    30    31    1
    13    31    32    1
    14    32    33    1
    15    33    34    1
    16    34    35    1
    17    34    36    1
    18    36    28    1
    19    28    27    1
    20    27     1    1
    21     1     9    1
    22     9    10   ar
    23    10    11   ar
    24    11    12   ar
    25    12    13   ar
    26    13    14   ar
    27     1     2    1
    28     2     3    1
    29     3     4    1
    30     4     5   am
    31     5     6    2
    32     5    15    1
    33    15    16   ar
    34    16    17   ar
    35    17    18   ar
    36    18    19   ar
    37    19    21    1
    38    21    22   ar
    39    22    23   ar
    40    23    24   ar
    41    24    25   ar
    42    19    20   ar
    43     4     7    1
    44     7     8    1
    45    46    38   ar
    46    35    29    1
    47     8     1    1
    48    45    40   ar
    49    36    31    1
    50    14     9   ar
    51    20    15   ar
    52    25    21   ar
    53    25    26    1
@<TRIPOS>MOLECULE
*****
 46 53 0 0 0
SMALL
GASTEIGER

@<TRIPOS>ATOM
      1 C         140.1711  141.1604  163.3666 C.3     1  UNL1        0.0235
      2 C         140.7955  141.8196  164.5606 C.3     1  UNL1        0.0257
      3 C         140.4981  141.3100  165.9397 C.3     1  UNL1        0.0940
      4 N         139.5763  140.1413  166.1249 N.am    1  UNL1       -0.2761
      5 C         139.2789  139.6318  167.5040 C.2     1  UNL1        0.2490
      6 O         138.3570  138.4631  167.6891 O.2     1  UNL1       -0.2699
      7 C         138.9518  139.4822  164.9309 C.3     1  UNL1        0.0940
      8 C         139.2492  139.9917  163.5518 C.3     1  UNL1        0.0257
      9 C         139.8250  140.8724  161.9357 C.ar    1  UNL1       -0.0226
     10 C         138.4236  141.0859  161.4455 C.ar    1  UNL1       -0.0043
     11 C         138.0775  140.7978  160.0146 C.ar    1  UNL1       -0.0003
     12 C         139.1329  140.2962  159.0741 C.ar    1  UNL1       -0.0000
     13 C         140.5344  140.0827  159.5644 C.ar    1  UNL1       -0.0003
     14 C         140.8803  140.3708  160.9953 C.ar    1  UNL1       -0.0043
     15 C         139.9034  140.2910  168.6979 C.ar    1  UNL1        0.0537
     16 C         141.0088  139.6025  169.4421 C.ar    1  UNL1        0.0045
     17 C         141.6333  140.2618  170.6360 C.ar    1  UNL1        0.0002
     18 C         141.1522  141.6096  171.0857 C.ar    1  UNL1        0.0031
     19 C         140.0468  142.2981  170.3414 C.ar    1  UNL1        0.0373
     20 C         139.4223  141.6388  169.1475 C.ar    1  UNL1        0.0076
     21 C         139.5658  143.6458  170.7911 C.ar    1  UNL1        0.1806
     22 N         140.0835  144.9707  170.3149 N.ar    1  UNL1       -0.1084
     23 N         139.3203  146.0490  171.0254 N.ar    1  UNL1       -0.0229
     24 N         138.3309  145.3906  171.9407 N.ar    1  UNL1       -0.0464
     25 N         138.4826  143.9053  171.7959 N.ar    1  UNL1       -0.2388
     26 H         137.9626  143.2209  172.2760 H       1  UNL1        0.1923
     27 C         140.9727  142.2291  162.6846 C.3     1  UNL1        0.0215
     28 C         140.5760  143.6689  162.8247 C.3     1  UNL1        0.0723
     29 C         140.5252  143.7281  162.9609 C.3     1  UNL1        0.0893
     30 C         139.1335  143.5136  162.4437 C.3     1  UNL1        0.0386
     31 C         137.9529  143.8873  163.2901 C.3     1  UNL1        0.0594
     32 C         137.1159  144.3860  164.4306 C.3     1  UNL1        0.0174
     33 C         138.0411  144.8495  165.5165 C.3     1  UNL1        0.0174
     34 C         139.4499  144.6373  165.0472 C.3     1  UNL1        0.0594
     35 C         140.7360  144.3164  164.3245 C.3     1  UNL1        0.0386
     36 N         139.3954  144.0426  163.6711 N.3     1  UNL1       -0.2751
     37 C         140.5006  143.9425  160.0200 C.3     1  UNL1        0.0718
     38 C         141.7780  143.4324  160.6183 C.ar    1  UNL1        0.1207
     39 N         143.1384  142.9632  160.1949 N.ar    1  UNL1       -0.2309
     40 C         143.9069  142.5953  161.4294 C.ar    1  UNL1        0.0983
     41 C         145.2985  142.0713  161.6264 C.ar    1  UNL1        0.0206
     42 C         145.8047  141.7892  163.0099 C.ar    1  UNL1        0.0016
     43 C         144.9194  142.0309  164.1963 C.ar    1  UNL1        0.0016
     44 C         143.5277  142.5549  163.9993 C.ar    1  UNL1        0.0188
     45 C         143.0215  142.8370  162.6158 C.ar    1  UNL1        0.0785
     46 N         141.7058  143.3544  162.1145 N.ar    1  UNL1       -0.3167
@<TRIPOS>BOND
     1    37    38    1
     2    38    39   ar
     3    39    40   ar
     4    40    41   ar
     5    41    42   ar
     6    42    43   ar
     7    43    44   ar
     8    44    45   ar
     9    45    46   ar
    10    46    29    1
    11    29    30    1
    12    30    31    1
    13    31    32    1
    14    32    33    1
    15    33    34    1
    16    34    35    1
    17    34    36    1
    18    36    28    1
    19    28    27    1
    20    27     1    1
    21     1     9    1
    22     9    10   ar
    23    10    11   ar
    24    11    12   ar
    25    12    13   ar
    26    13    14   ar
    27     1     2    1
    28     2     3    1
    29     3     4    1
    30     4     5   am
    31     5     6    2
    32     5    15    1
    33    15    16   ar
    34    16    17   ar
    35    17    18   ar
    36    18    19   ar
    37    19    21    1
    38    21    22   ar
    39    22    23   ar
    40    23    24   ar
    41    24    25   ar
    42    19    20   ar
    43     4     7    1
    44     7     8    1
    45    46    38   ar
    46    35    29    1
    47     8     1    1
    48    45    40   ar
    49    36    31    1
    50    14     9   ar
    51    20    15   ar
    52    25    21   ar
    53    25    26    1
@<TRIPOS>MOLECULE
*****
 46 53 0 0 0
SMALL
GASTEIGER

@<TRIPOS>ATOM
      1 C         140.3698  141.5977  161.7496 C.3     1  UNL1        0.0235
      2 C         141.0947  142.0764  162.9725 C.3     1  UNL1        0.0257
      3 C         140.9462  141.3379  164.2696 C.3     1  UNL1        0.0940
      4 N         140.0728  140.1206  164.3439 N.am    1  UNL1       -0.2761
      5 C         139.9243  139.3821  165.6410 C.2     1  UNL1        0.2490
      6 O         139.0509  138.1649  165.7153 O.2     1  UNL1       -0.2699
      7 C         139.3479  139.6420  163.1210 C.3     1  UNL1        0.0940
      8 C         139.4963  140.3804  161.8240 C.3     1  UNL1        0.0257
      9 C         139.8903  141.5340  160.3297 C.ar    1  UNL1       -0.0226
     10 C         138.4787  141.9170  159.9968 C.ar    1  UNL1       -0.0043
     11 C         137.9993  141.8533  158.5769 C.ar    1  UNL1       -0.0003
     12 C         138.9315  141.4066  157.4899 C.ar    1  UNL1       -0.0000
     13 C         140.3431  141.0237  157.8228 C.ar    1  UNL1       -0.0003
     14 C         140.8224  141.0874  159.2428 C.ar    1  UNL1       -0.0043
     15 C         140.6493  139.8608  166.8638 C.ar    1  UNL1        0.0537
     16 C         141.9584  139.2394  167.2511 C.ar    1  UNL1        0.0045
     17 C         142.6833  139.7182  168.4739 C.ar    1  UNL1        0.0002
     18 C         142.0990  140.8185  169.3095 C.ar    1  UNL1        0.0031
     19 C         140.7899  141.4399  168.9222 C.ar    1  UNL1        0.0373
     20 C         140.0650  140.9611  167.6994 C.ar    1  UNL1        0.0076
     21 C         140.2057  142.5401  169.7577 C.ar    1  UNL1        0.1806
     22 N         139.2665  142.3652  170.9142 N.ar    1  UNL1       -0.1084
     23 N         138.9385  143.7254  171.4547 N.ar    1  UNL1       -0.0229
     24 N         139.6749  144.7411  170.6324 N.ar    1  UNL1       -0.0464
     25 N         140.4581  144.0085  169.5835 N.ar    1  UNL1       -0.2388
     26 H         141.0363  144.4193  168.9008 H       1  UNL1        0.1923
     27 C         141.0766  142.7928  161.1822 C.3     1  UNL1        0.0215
     28 C         140.7204  144.1704  161.6571 C.3     1  UNL1        0.0723
     29 C         140.7065  144.2065  161.8092 C.3     1  UNL1        0.0893
     30 C         139.2328  143.9781  161.6473 C.3     1  UNL1        0.0386
     31 C         138.3135  144.1530  162.8197 C.3     1  UNL1        0.0594
     32 C         137.8010  144.4320  164.2015 C.3     1  UNL1        0.0174
     33 C         138.9719  144.7967  165.0653 C.3     1  UNL1        0.0174
     34 C         140.2080  144.7431  164.2173 C.3     1  UNL1        0.0594
     35 C         141.2608  144.6098  163.1434 C.3     1  UNL1        0.0386
     36 N         139.8011  144.3452  162.8293 N.3     1  UNL1       -0.2751
     37 C         143.4756  143.2341  162.0955 C.3     1  UNL1        0.0718
     38 C         143.0433  143.5444  160.6931 C.ar    1  UNL1        0.1207
     39 N         143.5825  143.5249  159.2935 N.ar    1  UNL1       -0.2309
     40 C         142.4982  144.0001  158.3723 C.ar    1  UNL1        0.0983
     41 C         142.4558  144.1881  156.8848 C.ar    1  UNL1        0.0206
     42 C         141.2041  144.6893  156.2276 C.ar    1  UNL1        0.0016
     43 C         139.9948  145.0024  157.0579 C.ar    1  UNL1        0.0016
     44 C         140.0372  144.8144  158.5454 C.ar    1  UNL1        0.0188
     45 C         141.2889  144.3133  159.2026 C.ar    1  UNL1        0.0785
     46 N         141.6258  144.0316  160.6369 N.ar    1  UNL1       -0.3167
@<TRIPOS>BOND
     1    37    38    1
     2    38    39   ar
     3    39    40   ar
     4    40    41   ar
     5    41    42   ar
     6    42    43   ar
     7    43    44   ar
     8    44    45   ar
     9    45    46   ar
    10    46    29    1
    11    29    30    1
    12    30    31    1
    13    31    32    1
    14    32    33    1
    15    33    34    1
    16    34    35    1
    17    34    36    1
    18    36    28    1
    19    28    27    1
    20    27     1    1
    21     1     9    1
    22     9    10   ar
    23    10    11   ar
    24    11    12   ar
    25    12    13   ar
    26    13    14   ar
    27     1     2    1
    28     2     3    1
    29     3     4    1
    30     4     5   am
    31     5     6    2
    32     5    15    1
    33    15    16   ar
    34    16    17   ar
    35    17    18   ar
    36    18    19   ar
    37    19    21    1
    38    21    22   ar
    39    22    23   ar
    40    23    24   ar
    41    24    25   ar
    42    19    20   ar
    43     4     7    1
    44     7     8    1
    45    46    38   ar
    46    35    29    1
    47     8     1    1
    48    45    40   ar
    49    36    31    1
    50    14     9   ar
    51    20    15   ar
    52    25    21   ar
    53    25    26    1
@<TRIPOS>MOLECULE
*****
 46 53 0 0 0
SMALL
GASTEIGER

@<TRIPOS>ATOM
      1 C         140.9389  142.1254  161.2465 C.3     1  UNL1        0.0235
      2 C         140.5955  141.2105  162.3845 C.3     1  UNL1        0.0257
      3 C         141.3443  141.3115  163.6803 C.3     1  UNL1        0.0940
      4 N         142.4366  142.3274  163.8381 N.am    1  UNL1       -0.2761
      5 C         143.1854  142.4284  165.1339 C.2     1  UNL1        0.2490
      6 O         144.2777  143.4442  165.2917 O.2     1  UNL1       -0.2699
      7 C         142.7800  143.2422  162.7001 C.3     1  UNL1        0.0940
      8 C         142.0313  143.1413  161.4044 C.3     1  UNL1        0.0257
      9 C         140.8982  142.7646  159.8901 C.ar    1  UNL1       -0.0226
     10 C         141.4218  142.0235  158.6957 C.ar    1  UNL1       -0.0043
     11 C         141.3810  142.6627  157.3393 C.ar    1  UNL1       -0.0003
     12 C         140.8166  144.0431  157.1774 C.ar    1  UNL1       -0.0000
     13 C         140.2930  144.7841  158.3718 C.ar    1  UNL1       -0.0003
     14 C         140.3338  144.1448  159.7282 C.ar    1  UNL1       -0.0043
     15 C         142.8419  141.5135  166.2719 C.ar    1  UNL1        0.0537
     16 C         143.1890  140.0563  166.1938 C.ar    1  UNL1        0.0045
     17 C         142.8454  139.1414  167.3318 C.ar    1  UNL1        0.0002
     18 C         142.1548  139.6838  168.5479 C.ar    1  UNL1        0.0031
     19 C         141.8076  141.1410  168.6259 C.ar    1  UNL1        0.0373
     20 C         142.1512  142.0558  167.4879 C.ar    1  UNL1        0.0076
     21 C         141.1170  141.6833  169.8420 C.ar    1  UNL1        0.1806
     22 N         141.4651  141.3697  171.2670 N.ar    1  UNL1       -0.1084
     23 N         140.5202  142.1270  172.1523 N.ar    1  UNL1       -0.0229
     24 N         139.5881  142.9085  171.2745 N.ar    1  UNL1       -0.0464
     25 N         139.9570  142.6343  169.8466 N.ar    1  UNL1       -0.2388
     26 H         139.5153  143.0121  169.0520 H       1  UNL1        0.1923
     27 C         139.8325  141.3315  160.6177 C.3     1  UNL1        0.0215
     28 C         138.4288  141.4654  161.1293 C.3     1  UNL1        0.0723
     29 C         138.3943  141.4642  161.2824 C.3     1  UNL1        0.0893
     30 C         138.4145  142.9628  161.2175 C.3     1  UNL1        0.0386
     31 C         138.1397  143.7707  162.4511 C.3     1  UNL1        0.0594
     32 C         137.8221  144.1485  163.8676 C.3     1  UNL1        0.0174
     33 C         137.6401  142.8847  164.6548 C.3     1  UNL1        0.0174
     34 C         137.8452  141.7258  163.7248 C.3     1  UNL1        0.0594
     35 C         138.0993  140.7738  162.5809 C.3     1  UNL1        0.0386
     36 N         138.1540  142.2733  162.3628 N.3     1  UNL1       -0.2751
     37 C         139.6369  138.7918  161.3801 C.3     1  UNL1        0.0718
     38 C         139.2954  139.2940  160.0085 C.ar    1  UNL1        0.1207
     39 N         139.3792  138.8647  158.5737 N.ar    1  UNL1       -0.2309
     40 C         138.8047  139.9617  157.7273 C.ar    1  UNL1        0.0983
     41 C         138.6245  140.0954  156.2442 C.ar    1  UNL1        0.0206
     42 C         138.0055  141.3364  155.6728 C.ar    1  UNL1        0.0016
     43 C         137.5666  142.4438  156.5845 C.ar    1  UNL1        0.0016
     44 C         137.7468  142.3101  158.0676 C.ar    1  UNL1        0.0188
     45 C         138.3658  141.0691  158.6390 C.ar    1  UNL1        0.0785
     46 N         138.6691  140.6563  160.0488 N.ar    1  UNL1       -0.3167
@<TRIPOS>BOND
     1    37    38    1
     2    38    39   ar
     3    39    40   ar
     4    40    41   ar
     5    41    42   ar
     6    42    43   ar
     7    43    44   ar
     8    44    45   ar
     9    45    46   ar
    10    46    29    1
    11    29    30    1
    12    30    31    1
    13    31    32    1
    14    32    33    1
    15    33    34    1
    16    34    35    1
    17    34    36    1
    18    36    28    1
    19    28    27    1
    20    27     1    1
    21     1     9    1
    22     9    10   ar
    23    10    11   ar
    24    11    12   ar
    25    12    13   ar
    26    13    14   ar
    27     1     2    1
    28     2     3    1
    29     3     4    1
    30     4     5   am
    31     5     6    2
    32     5    15    1
    33    15    16   ar
    34    16    17   ar
    35    17    18   ar
    36    18    19   ar
    37    19    21    1
    38    21    22   ar
    39    22    23   ar
    40    23    24   ar
    41    24    25   ar
    42    19    20   ar
    43     4     7    1
    44     7     8    1
    45    46    38   ar
    46    35    29    1
    47     8     1    1
    48    45    40   ar
    49    36    31    1
    50    14     9   ar
    51    20    15   ar
    52    25    21   ar
    53    25    26    1
@<TRIPOS>MOLECULE
*****
 46 53 0 0 0
SMALL
GASTEIGER

@<TRIPOS>ATOM
      1 C         140.8447  141.1422  161.0345 C.3     1  UNL1        0.0235
      2 C         140.2121  139.9767  160.3334 C.3     1  UNL1        0.0257
      3 C         140.9459  139.2787  159.2269 C.3     1  UNL1        0.0940
      4 N         142.3123  139.7462  158.8215 N.am    1  UNL1       -0.2761
      5 C         143.0461  139.0482  157.7150 C.2     1  UNL1        0.2490
      6 O         144.4125  139.5157  157.3095 O.2     1  UNL1       -0.2699
      7 C         142.9449  140.9117  159.5225 C.3     1  UNL1        0.0940
      8 C         142.2111  141.6097  160.6289 C.3     1  UNL1        0.0257
      9 C         141.0245  142.2830  161.9918 C.ar    1  UNL1       -0.0226
     10 C         140.9725  143.6964  161.4924 C.ar    1  UNL1       -0.0043
     11 C         141.1523  144.8372  162.4497 C.ar    1  UNL1       -0.0003
     12 C         141.3840  144.5644  163.9064 C.ar    1  UNL1       -0.0000
     13 C         141.4360  143.1509  164.4058 C.ar    1  UNL1       -0.0003
     14 C         141.2562  142.0102  163.4484 C.ar    1  UNL1       -0.0043
     15 C         142.4135  137.8827  157.0140 C.ar    1  UNL1        0.0537
     16 C         143.0629  136.5317  157.0691 C.ar    1  UNL1        0.0045
     17 C         142.4302  135.3662  156.3681 C.ar    1  UNL1        0.0002
     18 C         141.1480  135.5518  155.6120 C.ar    1  UNL1        0.0031
     19 C         140.4986  136.9028  155.5569 C.ar    1  UNL1        0.0373
     20 C         141.1313  138.0682  156.2579 C.ar    1  UNL1        0.0076
     21 C         139.2165  137.0883  154.8008 C.ar    1  UNL1        0.1806
     22 N         137.9040  137.5217  155.3836 N.ar    1  UNL1       -0.1084
     23 N         136.8981  137.5742  154.2721 N.ar    1  UNL1       -0.0229
     24 N         137.5888  137.1733  153.0024 N.ar    1  UNL1       -0.0464
     25 N         139.0217  136.8730  153.3291 N.ar    1  UNL1       -0.2388
     26 H         139.7129  136.5851  152.6899 H       1  UNL1        0.1923
     27 C         139.5408  141.0709  161.7724 C.3     1  UNL1        0.0215
     28 C         138.2609  141.4121  161.0684 C.3     1  UNL1        0.0723
     29 C         138.2284  141.3494  160.9282 C.3     1  UNL1        0.0893
     30 C         138.7023  142.6407  160.3297 C.3     1  UNL1        0.0386
     31 C         138.6913  142.8261  158.8412 C.3     1  UNL1        0.0594
     32 C         138.5099  142.5748  157.3736 C.3     1  UNL1        0.0174
     33 C         137.9564  141.1908  157.2053 C.3     1  UNL1        0.0174
     34 C         137.7957  140.5868  158.5689 C.3     1  UNL1        0.0594
     35 C         137.7436  140.2437  160.0382 C.3     1  UNL1        0.0386
     36 N         138.2500  141.5975  159.5800 N.3     1  UNL1       -0.2751
     37 C         137.7022  143.5609  162.8065 C.3     1  UNL1        0.0718
     38 C         137.9832  142.2306  163.4399 C.ar    1  UNL1        0.1207
     39 N         138.0939  141.6052  164.7988 N.ar    1  UNL1       -0.2309
     40 C         138.4184  140.1523  164.6155 C.ar    1  UNL1        0.0983
     41 C         138.6437  139.0423  165.5989 C.ar    1  UNL1        0.0206
     42 C         138.9588  137.6597  165.1101 C.ar    1  UNL1        0.0016
     43 C         139.0487  137.3871  163.6378 C.ar    1  UNL1        0.0016
     44 C         138.8234  138.4970  162.6544 C.ar    1  UNL1        0.0188
     45 C         138.5083  139.8796  163.1432 C.ar    1  UNL1        0.0785
     46 N         138.2393  141.1641  162.4167 N.ar    1  UNL1       -0.3167
@<TRIPOS>BOND
     1    37    38    1
     2    38    39   ar
     3    39    40   ar
     4    40    41   ar
     5    41    42   ar
     6    42    43   ar
     7    43    44   ar
     8    44    45   ar
     9    45    46   ar
    10    46    29    1
    11    29    30    1
    12    30    31    1
    13    31    32    1
    14    32    33    1
    15    33    34    1
    16    34    35    1
    17    34    36    1
    18    36    28    1
    19    28    27    1
    20    27     1    1
    21     1     9    1
    22     9    10   ar
    23    10    11   ar
    24    11    12   ar
    25    12    13   ar
    26    13    14   ar
    27     1     2    1
    28     2     3    1
    29     3     4    1
    30     4     5   am
    31     5     6    2
    32     5    15    1
    33    15    16   ar
    34    16    17   ar
    35    17    18   ar
    36    18    19   ar
    37    19    21    1
    38    21    22   ar
    39    22    23   ar
    40    23    24   ar
    41    24    25   ar
    42    19    20   ar
    43     4     7    1
    44     7     8    1
    45    46    38   ar
    46    35    29    1
    47     8     1    1
    48    45    40   ar
    49    36    31    1
    50    14     9   ar
    51    20    15   ar
    52    25    21   ar
    53    25    26    1
@<TRIPOS>MOLECULE
*****
 46 53 0 0 0
SMALL
GASTEIGER

@<TRIPOS>ATOM
      1 C         141.2341  140.2034  163.0973 C.3     1  UNL1        0.0235
      2 C         140.7391  140.5666  164.4659 C.3     1  UNL1        0.0257
      3 C         141.4747  140.0857  165.6815 C.3     1  UNL1        0.0940
      4 N         142.7052  139.2417  165.5285 N.am    1  UNL1       -0.2761
      5 C         143.4408  138.7609  166.7441 C.2     1  UNL1        0.2490
      6 O         144.6714  137.9169  166.5912 O.2     1  UNL1       -0.2699
      7 C         143.2002  138.8785  164.1599 C.3     1  UNL1        0.0940
      8 C         142.4647  139.3593  162.9443 C.3     1  UNL1        0.0257
      9 C         141.3110  140.1237  161.6013 C.ar    1  UNL1       -0.0226
     10 C         141.8052  141.2995  160.8120 C.ar    1  UNL1       -0.0043
     11 C         141.8821  141.2198  159.3160 C.ar    1  UNL1       -0.0003
     12 C         141.4647  139.9641  158.6095 C.ar    1  UNL1       -0.0000
     13 C         140.9705  138.7882  159.3989 C.ar    1  UNL1       -0.0003
     14 C         140.8937  138.8681  160.8948 C.ar    1  UNL1       -0.0043
     15 C         142.9458  139.1241  168.1127 C.ar    1  UNL1        0.0537
     16 C         143.1937  138.2017  169.2693 C.ar    1  UNL1        0.0045
     17 C         142.6986  138.5650  170.6378 C.ar    1  UNL1        0.0002
     18 C         141.9558  139.8508  170.8498 C.ar    1  UNL1        0.0031
     19 C         141.7079  140.7732  169.6933 C.ar    1  UNL1        0.0373
     20 C         142.2030  140.4099  168.3247 C.ar    1  UNL1        0.0076
     21 C         140.9651  142.0589  169.9053 C.ar    1  UNL1        0.1806
     22 N         140.1853  142.4350  171.1303 N.ar    1  UNL1       -0.1084
     23 N         139.6099  143.8029  170.9117 N.ar    1  UNL1       -0.0229
     24 N         140.0339  144.2722  169.5516 N.ar    1  UNL1       -0.0464
     25 N         140.8715  143.1944  168.9295 N.ar    1  UNL1       -0.2388
     26 H         141.2869  143.2266  168.0375 H       1  UNL1        0.1923
     27 C         140.0303  141.0197  162.7307 C.3     1  UNL1        0.0215
     28 C         138.6599  140.5539  163.1246 C.3     1  UNL1        0.0723
     29 C         138.6243  140.5162  163.2728 C.3     1  UNL1        0.0893
     30 C         138.8747  139.0885  162.8865 C.3     1  UNL1        0.0386
     31 C         138.7169  137.9976  163.9037 C.3     1  UNL1        0.0594
     32 C         138.4494  137.2747  165.1906 C.3     1  UNL1        0.0174
     33 C         138.0692  138.2933  166.2240 C.3     1  UNL1        0.0174
     34 C         138.1018  139.6457  165.5759 C.3     1  UNL1        0.0594
     35 C         138.2163  140.8528  164.6764 C.3     1  UNL1        0.0386
     36 N         138.5021  139.4629  164.1418 N.3     1  UNL1       -0.2751
     37 C         137.6945  140.2361  160.4885 C.3     1  UNL1        0.0718
     38 C         138.3394  141.5482  160.8236 C.ar    1  UNL1        0.1207
     39 N         138.6940  142.8533  160.1747 N.ar    1  UNL1       -0.2309
     40 C         139.3559  143.7188  161.2056 C.ar    1  UNL1        0.0983
     41 C         139.9161  145.1087  161.1394 C.ar    1  UNL1        0.0206
     42 C         140.5306  145.7285  162.3593 C.ar    1  UNL1        0.0016
     43 C         140.5851  144.9583  163.6453 C.ar    1  UNL1        0.0016
     44 C         140.0249  143.5685  163.7115 C.ar    1  UNL1        0.0188
     45 C         139.4104  142.9487  162.4916 C.ar    1  UNL1        0.0785
     46 N         138.7821  141.6072  162.2555 N.ar    1  UNL1       -0.3167
@<TRIPOS>BOND
     1    37    38    1
     2    38    39   ar
     3    39    40   ar
     4    40    41   ar
     5    41    42   ar
     6    42    43   ar
     7    43    44   ar
     8    44    45   ar
     9    45    46   ar
    10    46    29    1
    11    29    30    1
    12    30    31    1
    13    31    32    1
    14    32    33    1
    15    33    34    1
    16    34    35    1
    17    34    36    1
    18    36    28    1
    19    28    27    1
    20    27     1    1
    21     1     9    1
    22     9    10   ar
    23    10    11   ar
    24    11    12   ar
    25    12    13   ar
    26    13    14   ar
    27     1     2    1
    28     2     3    1
    29     3     4    1
    30     4     5   am
    31     5     6    2
    32     5    15    1
    33    15    16   ar
    34    16    17   ar
    35    17    18   ar
    36    18    19   ar
    37    19    21    1
    38    21    22   ar
    39    22    23   ar
    40    23    24   ar
    41    24    25   ar
    42    19    20   ar
    43     4     7    1
    44     7     8    1
    45    46    38   ar
    46    35    29    1
    47     8     1    1
    48    45    40   ar
    49    36    31    1
    50    14     9   ar
    51    20    15   ar
    52    25    21   ar
    53    25    26    1
@<TRIPOS>MOLECULE
*****
 46 53 0 0 0
SMALL
GASTEIGER

@<TRIPOS>ATOM
      1 C         141.8953  142.7080  161.2279 C.3     1  UNL1        0.0235
      2 C         141.4427  141.7050  162.2472 C.3     1  UNL1        0.0257
      3 C         141.9889  141.7556  163.6433 C.3     1  UNL1        0.0940
      4 N         142.9878  142.8093  164.0201 N.am    1  UNL1       -0.2761
      5 C         143.5340  142.8599  165.4162 C.2     1  UNL1        0.2490
      6 O         144.5329  143.9136  165.7930 O.2     1  UNL1       -0.2699
      7 C         143.4405  143.8123  163.0008 C.3     1  UNL1        0.0940
      8 C         142.8943  143.7617  161.6047 C.3     1  UNL1        0.0257
      9 C         142.0157  143.4325  159.9199 C.ar    1  UNL1       -0.0226
     10 C         142.7702  142.8086  158.7836 C.ar    1  UNL1       -0.0043
     11 C         142.8905  143.5332  157.4756 C.ar    1  UNL1       -0.0003
     12 C         142.2563  144.8816  157.3042 C.ar    1  UNL1       -0.0000
     13 C         141.5017  145.5055  158.4406 C.ar    1  UNL1       -0.0003
     14 C         141.3814  144.7809  159.7485 C.ar    1  UNL1       -0.0043
     15 C         143.0813  141.8569  166.4355 C.ar    1  UNL1        0.0537
     16 C         143.3718  140.3992  166.2338 C.ar    1  UNL1        0.0045
     17 C         142.9191  139.3962  167.2532 C.ar    1  UNL1        0.0002
     18 C         142.1757  139.8509  168.4741 C.ar    1  UNL1        0.0031
     19 C         141.8852  141.3086  168.6758 C.ar    1  UNL1        0.0373
     20 C         142.3380  142.3116  167.6564 C.ar    1  UNL1        0.0076
     21 C         141.1419  141.7632  169.8967 C.ar    1  UNL1        0.1806
     22 N         141.4811  141.4155  171.3159 N.ar    1  UNL1       -0.1084
     23 N         140.4777  142.0828  172.2092 N.ar    1  UNL1       -0.0229
     24 N         139.5184  142.8430  171.3421 N.ar    1  UNL1       -0.0464
     25 N         139.9289  142.6455  169.9129 N.ar    1  UNL1       -0.2388
     26 H         139.4808  143.0278  169.1240 H       1  UNL1        0.1923
     27 C         140.9383  141.9060  160.3969 C.3     1  UNL1        0.0215
     28 C         139.4660  141.9698  160.6771 C.3     1  UNL1        0.0723
     29 C         139.4097  141.9520  160.8225 C.3     1  UNL1        0.0893
     30 C         139.3520  143.4491  160.8982 C.3     1  UNL1        0.0386
     31 C         138.8540  144.1183  162.1449 C.3     1  UNL1        0.0594
     32 C         138.3122  144.3401  163.5259 C.3     1  UNL1        0.0174
     33 C         138.0914  142.9979  164.1583 C.3     1  UNL1        0.0174
     34 C         138.4967  141.9466  163.1681 C.3     1  UNL1        0.0594
     35 C         138.9695  141.1244  161.9934 C.3     1  UNL1        0.0386
     36 N         138.9681  142.6391  161.9236 N.3     1  UNL1       -0.2751
     37 C         138.7288  142.9201  158.1217 C.3     1  UNL1        0.0718
     38 C         139.6107  141.7077  158.1683 C.ar    1  UNL1        0.1207
     39 N         140.3095  140.7586  157.2404 N.ar    1  UNL1       -0.2309
     40 C         141.0383  139.7471  158.0746 C.ar    1  UNL1        0.0983
     41 C         141.8960  138.5730  157.7062 C.ar    1  UNL1        0.0206
     42 C         142.5054  137.7228  158.7813 C.ar    1  UNL1        0.0016
     43 C         142.2570  138.0468  160.2247 C.ar    1  UNL1        0.0016
     44 C         141.3993  139.2209  160.5930 C.ar    1  UNL1        0.0188
     45 C         140.7900  140.0711  159.5179 C.ar    1  UNL1        0.0785
     46 N         139.9077  141.2828  159.5758 N.ar    1  UNL1       -0.3167
@<TRIPOS>BOND
     1    37    38    1
     2    38    39   ar
     3    39    40   ar
     4    40    41   ar
     5    41    42   ar
     6    42    43   ar
     7    43    44   ar
     8    44    45   ar
     9    45    46   ar
    10    46    29    1
    11    29    30    1
    12    30    31    1
    13    31    32    1
    14    32    33    1
    15    33    34    1
    16    34    35    1
    17    34    36    1
    18    36    28    1
    19    28    27    1
    20    27     1    1
    21     1     9    1
    22     9    10   ar
    23    10    11   ar
    24    11    12   ar
    25    12    13   ar
    26    13    14   ar
    27     1     2    1
    28     2     3    1
    29     3     4    1
    30     4     5   am
    31     5     6    2
    32     5    15    1
    33    15    16   ar
    34    16    17   ar
    35    17    18   ar
    36    18    19   ar
    37    19    21    1
    38    21    22   ar
    39    22    23   ar
    40    23    24   ar
    41    24    25   ar
    42    19    20   ar
    43     4     7    1
    44     7     8    1
    45    46    38   ar
    46    35    29    1
    47     8     1    1
    48    45    40   ar
    49    36    31    1
    50    14     9   ar
    51    20    15   ar
    52    25    21   ar
    53    25    26    1
@<TRIPOS>MOLECULE
*****
 46 53 0 0 0
SMALL
GASTEIGER

@<TRIPOS>ATOM
      1 C         140.1233  140.7908  161.3337 C.3     1  UNL1        0.0235
      2 C         140.9575  141.3219  162.4615 C.3     1  UNL1        0.0257
      3 C         140.8025  140.7539  163.8412 C.3     1  UNL1        0.0940
      4 N         139.8134  139.6548  164.0930 N.am    1  UNL1       -0.2761
      5 C         139.6584  139.0868  165.4726 C.2     1  UNL1        0.2490
      6 O         138.6692  137.9877  165.7244 O.2     1  UNL1       -0.2699
      7 C         138.9792  139.1236  162.9652 C.3     1  UNL1        0.0940
      8 C         139.1341  139.6916  161.5856 C.3     1  UNL1        0.0257
      9 C         139.5653  140.6208  159.9517 C.ar    1  UNL1       -0.0226
     10 C         139.8715  139.3799  159.1666 C.ar    1  UNL1       -0.0043
     11 C         139.3134  139.2099  157.7847 C.ar    1  UNL1       -0.0003
     12 C         138.4492  140.2809  157.1879 C.ar    1  UNL1       -0.0000
     13 C         138.1431  141.5219  157.9730 C.ar    1  UNL1       -0.0003
     14 C         138.7012  141.6917  159.3550 C.ar    1  UNL1       -0.0043
     15 C         140.4926  139.6180  166.6004 C.ar    1  UNL1        0.0537
     16 C         141.8780  139.0878  166.8229 C.ar    1  UNL1        0.0045
     17 C         142.7122  139.6191  167.9507 C.ar    1  UNL1        0.0002
     18 C         142.1610  140.6805  168.8560 C.ar    1  UNL1        0.0031
     19 C         140.7756  141.2108  168.6334 C.ar    1  UNL1        0.0373
     20 C         139.9414  140.6795  167.5056 C.ar    1  UNL1        0.0076
     21 C         140.2244  142.2722  169.5386 C.ar    1  UNL1        0.1806
     22 N         140.4106  143.7519  169.3778 N.ar    1  UNL1       -0.1084
     23 N         139.6915  144.4346  170.5034 N.ar    1  UNL1       -0.0229
     24 N         139.0609  143.3768  171.3599 N.ar    1  UNL1       -0.0464
     25 N         139.3903  142.0403  170.7636 N.ar    1  UNL1       -0.2388
     26 H         139.1084  141.1648  171.1146 H       1  UNL1        0.1923
     27 C         140.9187  141.8308  160.6020 C.3     1  UNL1        0.0215
     28 C         142.3845  141.6223  160.3614 C.3     1  UNL1        0.0723
     29 C         142.4757  141.5643  160.4752 C.3     1  UNL1        0.0893
     30 C         142.3550  140.2373  159.7862 C.3     1  UNL1        0.0386
     31 C         143.0443  139.0320  160.3539 C.3     1  UNL1        0.0594
     32 C         143.8658  138.1441  161.2409 C.3     1  UNL1        0.0174
     33 C         144.4030  138.9805  162.3643 C.3     1  UNL1        0.0174
     34 C         143.9135  140.3852  162.1715 C.3     1  UNL1        0.0594
     35 C         143.2855  141.6858  161.7319 C.3     1  UNL1        0.0386
     36 N         143.0737  140.4171  160.9290 N.3     1  UNL1       -0.2751
     37 C         142.1457  141.9844  157.5752 C.3     1  UNL1        0.0718
     38 C         141.5761  143.0606  158.4512 C.ar    1  UNL1        0.1207
     39 N         140.8462  144.3663  158.3402 N.ar    1  UNL1       -0.2309
     40 C         140.6053  144.8822  159.7279 C.ar    1  UNL1        0.0983
     41 C         139.9320  146.1231  160.2346 C.ar    1  UNL1        0.0206
     42 C         139.8397  146.3770  161.7101 C.ar    1  UNL1        0.0016
     43 C         140.4208  145.3902  162.6788 C.ar    1  UNL1        0.0016
     44 C         141.0942  144.1493  162.1721 C.ar    1  UNL1        0.0188
     45 C         141.1864  143.8953  160.6966 C.ar    1  UNL1        0.0785
     46 N         141.7864  142.7695  159.9076 N.ar    1  UNL1       -0.3167
@<TRIPOS>BOND
     1    37    38    1
     2    38    39   ar
     3    39    40   ar
     4    40    41   ar
     5    41    42   ar
     6    42    43   ar
     7    43    44   ar
     8    44    45   ar
     9    45    46   ar
    10    46    29    1
    11    29    30    1
    12    30    31    1
    13    31    32    1
    14    32    33    1
    15    33    34    1
    16    34    35    1
    17    34    36    1
    18    36    28    1
    19    28    27    1
    20    27     1    1
    21     1     9    1
    22     9    10   ar
    23    10    11   ar
    24    11    12   ar
    25    12    13   ar
    26    13    14   ar
    27     1     2    1
    28     2     3    1
    29     3     4    1
    30     4     5   am
    31     5     6    2
    32     5    15    1
    33    15    16   ar
    34    16    17   ar
    35    17    18   ar
    36    18    19   ar
    37    19    21    1
    38    21    22   ar
    39    22    23   ar
    40    23    24   ar
    41    24    25   ar
    42    19    20   ar
    43     4     7    1
    44     7     8    1
    45    46    38   ar
    46    35    29    1
    47     8     1    1
    48    45    40   ar
    49    36    31    1
    50    14     9   ar
    51    20    15   ar
    52    25    21   ar
    53    25    26    1
@<TRIPOS>MOLECULE
*****
 46 53 0 0 0
SMALL
GASTEIGER

@<TRIPOS>ATOM
      1 C         140.3791  142.2642  161.5792 C.3     1  UNL1        0.0235
      2 C         141.2679  141.6938  160.5139 C.3     1  UNL1        0.0257
      3 C         140.6659  141.0424  159.3043 C.3     1  UNL1        0.0940
      4 N         139.1751  140.9612  159.1599 N.am    1  UNL1       -0.2761
      5 C         138.5730  140.3097  157.9503 C.2     1  UNL1        0.2490
      6 O         137.0822  140.2286  157.8060 O.2     1  UNL1       -0.2699
      7 C         138.2863  141.5315  160.2252 C.3     1  UNL1        0.0940
      8 C         138.8882  142.1830  161.4348 C.3     1  UNL1        0.0257
      9 C         139.9571  142.9448  162.8476 C.ar    1  UNL1       -0.0226
     10 C         139.3390  144.3105  162.7961 C.ar    1  UNL1       -0.0043
     11 C         138.9170  144.9911  164.0645 C.ar    1  UNL1       -0.0003
     12 C         139.1132  144.3058  165.3843 C.ar    1  UNL1       -0.0000
     13 C         139.7313  142.9401  165.4358 C.ar    1  UNL1       -0.0003
     14 C         140.1533  142.2596  164.1673 C.ar    1  UNL1       -0.0043
     15 C         139.4619  139.7394  156.8851 C.ar    1  UNL1        0.0537
     16 C         139.7208  140.5169  155.6287 C.ar    1  UNL1        0.0045
     17 C         140.6097  139.9465  154.5635 C.ar    1  UNL1        0.0002
     18 C         141.2396  138.5987  154.7548 C.ar    1  UNL1        0.0031
     19 C         140.9807  137.8212  156.0111 C.ar    1  UNL1        0.0373
     20 C         140.0918  138.3916  157.0763 C.ar    1  UNL1        0.0076
     21 C         141.6106  136.4735  156.2023 C.ar    1  UNL1        0.1806
     22 N         142.8404  136.1816  157.0101 N.ar    1  UNL1       -0.1084
     23 N         143.1113  134.7086  156.9263 N.ar    1  UNL1       -0.0229
     24 N         142.0489  134.0901  156.0668 N.ar    1  UNL1       -0.0464
     25 N         141.1214  135.1808  155.6193 N.ar    1  UNL1       -0.2388
     26 H         140.3305  135.0681  155.0440 H       1  UNL1        0.1923
     27 C         141.7233  142.5817  162.1640 C.3     1  UNL1        0.0215
     28 C         142.6000  143.6109  161.5141 C.3     1  UNL1        0.0723
     29 C         142.6253  143.6077  161.3592 C.3     1  UNL1        0.0893
     30 C         141.5729  144.6706  161.2453 C.3     1  UNL1        0.0386
     31 C         141.2086  145.2243  159.8997 C.3     1  UNL1        0.0594
     32 C         141.1727  145.4704  158.4204 C.3     1  UNL1        0.0174
     33 C         142.1776  144.5628  157.7750 C.3     1  UNL1        0.0174
     34 C         142.8345  143.7558  158.8553 C.3     1  UNL1        0.0594
     35 C         143.3133  143.0986  160.1274 C.3     1  UNL1        0.0386
     36 N         142.2357  144.1646  160.1685 N.3     1  UNL1       -0.2751
     37 C         142.6571  145.2621  163.8000 C.3     1  UNL1        0.0718
     38 C         143.0311  143.8223  163.9925 C.ar    1  UNL1        0.1207
     39 N         143.4434  142.8779  165.0825 N.ar    1  UNL1       -0.2309
     40 C         143.6568  141.5261  164.4685 C.ar    1  UNL1        0.0983
     41 C         144.0702  140.2101  165.0577 C.ar    1  UNL1        0.0206
     42 C         144.2032  139.0029  164.1774 C.ar    1  UNL1        0.0016
     43 C         143.9227  139.1118  162.7078 C.ar    1  UNL1        0.0016
     44 C         143.5092  140.4278  162.1187 C.ar    1  UNL1        0.0188
     45 C         143.3763  141.6349  162.9990 C.ar    1  UNL1        0.0785
     46 N         142.9896  143.0541  162.7048 N.ar    1  UNL1       -0.3167
@<TRIPOS>BOND
     1    37    38    1
     2    38    39   ar
     3    39    40   ar
     4    40    41   ar
     5    41    42   ar
     6    42    43   ar
     7    43    44   ar
     8    44    45   ar
     9    45    46   ar
    10    46    29    1
    11    29    30    1
    12    30    31    1
    13    31    32    1
    14    32    33    1
    15    33    34    1
    16    34    35    1
    17    34    36    1
    18    36    28    1
    19    28    27    1
    20    27     1    1
    21     1     9    1
    22     9    10   ar
    23    10    11   ar
    24    11    12   ar
    25    12    13   ar
    26    13    14   ar
    27     1     2    1
    28     2     3    1
    29     3     4    1
    30     4     5   am
    31     5     6    2
    32     5    15    1
    33    15    16   ar
    34    16    17   ar
    35    17    18   ar
    36    18    19   ar
    37    19    21    1
    38    21    22   ar
    39    22    23   ar
    40    23    24   ar
    41    24    25   ar
    42    19    20   ar
    43     4     7    1
    44     7     8    1
    45    46    38   ar
    46    35    29    1
    47     8     1    1
    48    45    40   ar
    49    36    31    1
    50    14     9   ar
    51    20    15   ar
    52    25    21   ar
    53    25    26    1
