@<TRIPOS>MOLECULE
*****
 39 42 0 0 0
SMALL
GASTEIGER

@<TRIPOS>ATOM
      1 C         142.6238  137.5926  157.5822 C.ar    1  UNL1        0.2245
      2 N         141.1270  137.6750  157.5291 N.ar    1  UNL1       -0.1912
      3 C         140.3840  138.4876  158.5478 C.ar    1  UNL1        0.2037
      4 N         141.1378  139.2179  159.6195 N.ar    1  UNL1       -0.1912
      5 C         142.6347  139.1355  159.6725 C.ar    1  UNL1        0.2240
      6 N         143.3776  138.3229  158.6539 N.ar    1  UNL1       -0.1806
      7 N         143.3884  139.8657  160.7442 N.pl3   1  UNL1       -0.2779
      8 C         143.6703  139.1923  162.0546 C.3     1  UNL1        0.0961
      9 C         144.4240  139.9225  163.1263 C.3     1  UNL1        0.0511
     10 C         144.8961  141.3262  162.8876 C.3     1  UNL1        0.1191
     11 C         144.6142  141.9996  161.5772 C.3     1  UNL1        0.0511
     12 C         143.8604  141.2693  160.5055 C.3     1  UNL1        0.0961
     13 O         145.6498  142.0565  163.9593 O.3     1  UNL1       -0.3514
     14 C         144.9145  142.9342  164.9282 C.3     1  UNL1        0.1685
     15 C         143.5489  143.4512  164.5845 C.ar    1  UNL1        0.0075
     16 C         143.3940  144.8132  163.9755 C.ar    1  UNL1        0.0013
     17 C         142.0285  145.3302  163.6318 C.ar    1  UNL1        0.0369
     18 C         140.8180  144.4852  163.8972 C.ar    1  UNL1        0.1468
     19 C         140.9729  143.1232  164.5063 C.ar    1  UNL1        0.0369
     20 C         142.3383  142.6062  164.8499 C.ar    1  UNL1        0.0013
     21 O         139.4524  145.0022  163.5536 O.3     1  UNL1       -0.4045
     22 C         138.2706  144.6139  164.3918 C.3     1  UNL1        0.5753
     23 F         137.0888  144.2256  165.2300 F       1  UNL1       -0.1328
     24 F         138.8556  145.3527  165.5588 F       1  UNL1       -0.1328
     25 F         137.6856  143.8751  163.2248 F       1  UNL1       -0.1328
     26 N         143.3667  136.7800  156.5635 N.pl3   1  UNL1       -0.2826
     27 H         144.1966  137.1293  156.1653 H       1  UNL1        0.1551
     28 C         142.6481  132.8770  156.5599 C.ar    1  UNL1        0.0474
     29 C         141.8025  132.7456  155.3280 C.ar    1  UNL1        0.0144
     30 C         141.4784  133.9590  154.5078 C.ar    1  UNL1        0.0025
     31 C         141.9998  135.3038  154.9197 C.ar    1  UNL1        0.0144
     32 C         142.8453  135.4352  156.1516 C.ar    1  UNL1        0.0476
     33 C         143.1694  134.2218  156.9718 C.ar    1  UNL1        0.0051
     34 C         144.0150  134.3532  158.2038 C.3     1  UNL1        0.0336
     35 C         144.6120  129.7528  158.0201 C.3     1  UNL1        0.0949
     36 C         144.2879  130.9662  157.2000 C.2     1  UNL1        0.2266
     37 O         145.2795  131.4821  156.1997 O.2     1  UNL1       -0.2748
     38 N         142.9722  131.6636  157.3801 N.am    1  UNL1       -0.2841
     39 H         142.3214  131.3250  158.0366 H       1  UNL1        0.1548
@<TRIPOS>BOND
     1    35    36    1
     2    36    37    2
     3    36    38   am
     4    38    28    1
     5    28    29   ar
     6    29    30   ar
     7    30    31   ar
     8    31    32   ar
     9    32    26    1
    10    26     1    1
    11     1     2   ar
    12     2     3   ar
    13     3     4   ar
    14     4     5   ar
    15     5     7    1
    16     7     8    1
    17     8     9    1
    18     9    10    1
    19    10    13    1
    20    13    14    1
    21    14    15    1
    22    15    16   ar
    23    16    17   ar
    24    17    18   ar
    25    18    21    1
    26    21    22    1
    27    22    23    1
    28    22    24    1
    29    22    25    1
    30    18    19   ar
    31    19    20   ar
    32    10    11    1
    33    11    12    1
    34     5     6   ar
    35    32    33   ar
    36    33    34    1
    37    33    28   ar
    38     6     1   ar
    39    12     7    1
    40    20    15   ar
    41    38    39    1
    42    26    27    1
@<TRIPOS>MOLECULE
*****
 39 42 0 0 0
SMALL
GASTEIGER

@<TRIPOS>ATOM
      1 C         143.7253  140.0897  159.0121 C.ar    1  UNL1        0.2245
      2 N         143.2246  138.9277  158.2066 N.ar    1  UNL1       -0.1912
      3 C         142.7563  137.6818  158.8983 C.ar    1  UNL1        0.2037
      4 N         142.7887  137.5980  160.3956 N.ar    1  UNL1       -0.1912
      5 C         143.2894  138.7601  161.2012 C.ar    1  UNL1        0.2240
      6 N         143.7577  140.0059  160.5094 N.ar    1  UNL1       -0.1806
      7 N         143.3218  138.6763  162.6985 N.pl3   1  UNL1       -0.2779
      8 C         144.4672  139.2766  163.4586 C.3     1  UNL1        0.0961
      9 C         144.4996  139.1928  164.9559 C.3     1  UNL1        0.0511
     10 C         143.3866  138.5087  165.6931 C.3     1  UNL1        0.1191
     11 C         142.2412  137.9084  164.9329 C.3     1  UNL1        0.0511
     12 C         142.2089  137.9922  163.4356 C.3     1  UNL1        0.0961
     13 O         143.4190  138.4249  167.1904 O.3     1  UNL1       -0.3514
     14 C         142.6848  139.4407  168.0145 C.3     1  UNL1        0.1685
     15 C         141.8987  140.5263  167.3411 C.ar    1  UNL1        0.0075
     16 C         142.5848  141.7844  166.8978 C.ar    1  UNL1        0.0013
     17 C         141.7988  142.8701  166.2244 C.ar    1  UNL1        0.0369
     18 C         140.3266  142.6976  165.9943 C.ar    1  UNL1        0.1468
     19 C         139.6405  141.4395  166.4376 C.ar    1  UNL1        0.0369
     20 C         140.4266  140.3539  167.1110 C.ar    1  UNL1        0.0013
     21 O         139.5405  143.7833  165.3209 O.3     1  UNL1       -0.4045
     22 C         138.6441  143.4531  164.1644 C.3     1  UNL1        0.5753
     23 F         137.7476  143.1229  163.0080 F       1  UNL1       -0.1328
     24 F         139.8194  142.9068  163.4093 F       1  UNL1       -0.1328
     25 F         137.4687  143.9994  164.9195 F       1  UNL1       -0.1328
     26 N         144.1936  141.3356  158.3203 N.pl3   1  UNL1       -0.2826
     27 H         145.1346  141.4210  158.0437 H       1  UNL1        0.1551
     28 C         141.8830  144.5133  158.8797 C.ar    1  UNL1        0.0474
     29 C         141.2974  144.6827  157.5092 C.ar    1  UNL1        0.0144
     30 C         141.6771  143.7364  156.4091 C.ar    1  UNL1        0.0025
     31 C         142.6425  142.6207  156.6794 C.ar    1  UNL1        0.0144
     32 C         143.2282  142.4513  158.0499 C.ar    1  UNL1        0.0476
     33 C         142.8484  143.3976  159.1500 C.ar    1  UNL1        0.0051
     34 C         143.4341  143.2281  160.5206 C.3     1  UNL1        0.0336
     35 C         139.8554  146.1891  161.8513 C.3     1  UNL1        0.0949
     36 C         140.2352  145.2428  160.7512 C.2     1  UNL1        0.2266
     37 O         139.3469  144.0797  160.4224 O.2     1  UNL1       -0.2748
     38 N         141.5032  145.4596  159.9798 N.am    1  UNL1       -0.2841
     39 H         142.0863  146.2230  160.1956 H       1  UNL1        0.1548
@<TRIPOS>BOND
     1    35    36    1
     2    36    37    2
     3    36    38   am
     4    38    28    1
     5    28    29   ar
     6    29    30   ar
     7    30    31   ar
     8    31    32   ar
     9    32    26    1
    10    26     1    1
    11     1     2   ar
    12     2     3   ar
    13     3     4   ar
    14     4     5   ar
    15     5     7    1
    16     7     8    1
    17     8     9    1
    18     9    10    1
    19    10    13    1
    20    13    14    1
    21    14    15    1
    22    15    16   ar
    23    16    17   ar
    24    17    18   ar
    25    18    21    1
    26    21    22    1
    27    22    23    1
    28    22    24    1
    29    22    25    1
    30    18    19   ar
    31    19    20   ar
    32    10    11    1
    33    11    12    1
    34     5     6   ar
    35    32    33   ar
    36    33    34    1
    37    33    28   ar
    38     6     1   ar
    39    12     7    1
    40    20    15   ar
    41    38    39    1
    42    26    27    1
@<TRIPOS>MOLECULE
*****
 39 42 0 0 0
SMALL
GASTEIGER

@<TRIPOS>ATOM
      1 C         142.3501  137.3802  157.6978 C.ar    1  UNL1        0.2245
      2 N         141.1254  138.0932  157.2063 N.ar    1  UNL1       -0.1912
      3 C         140.2875  138.8903  158.1617 C.ar    1  UNL1        0.2037
      4 N         140.6743  138.9742  159.6085 N.ar    1  UNL1       -0.1912
      5 C         141.8991  138.2611  160.1000 C.ar    1  UNL1        0.2240
      6 N         142.7370  137.4641  159.1447 N.ar    1  UNL1       -0.1806
      7 N         142.2859  138.3451  161.5468 N.pl3   1  UNL1       -0.2779
      8 C         143.5606  139.0288  161.9439 C.3     1  UNL1        0.0961
      9 C         143.9474  139.1127  163.3907 C.3     1  UNL1        0.0511
     10 C         143.0596  138.5129  164.4405 C.3     1  UNL1        0.1191
     11 C         141.7849  137.8292  164.0434 C.3     1  UNL1        0.0511
     12 C         141.3981  137.7452  162.5965 C.3     1  UNL1        0.0961
     13 O         143.4464  138.5969  165.8873 O.3     1  UNL1       -0.3514
     14 C         142.6630  139.4683  166.8238 C.3     1  UNL1        0.1685
     15 C         142.0101  140.7192  166.3148 C.ar    1  UNL1        0.0075
     16 C         140.5189  140.8675  166.3817 C.ar    1  UNL1        0.0013
     17 C         139.8660  142.1183  165.8728 C.ar    1  UNL1        0.0369
     18 C         140.7042  143.2209  165.2971 C.ar    1  UNL1        0.1468
     19 C         142.1954  143.0727  165.2302 C.ar    1  UNL1        0.0369
     20 C         142.8483  141.8219  165.7391 C.ar    1  UNL1        0.0013
     21 O         140.0513  144.4719  164.7881 O.3     1  UNL1       -0.4045
     22 C         138.7086  144.3999  164.1234 C.3     1  UNL1        0.5753
     23 F         137.3659  144.3280  163.4586 F       1  UNL1       -0.1328
     24 F         139.3473  143.8207  162.8959 F       1  UNL1       -0.1328
     25 F         138.0699  144.9791  165.3508 F       1  UNL1       -0.1328
     26 N         143.1880  136.5832  156.7424 N.pl3   1  UNL1       -0.2826
     27 H         144.0486  136.9413  156.4255 H       1  UNL1        0.1551
     28 C         142.6165  132.6603  156.5577 C.ar    1  UNL1        0.0474
     29 C         141.7683  132.5551  155.3251 C.ar    1  UNL1        0.0144
     30 C         141.3933  133.7927  154.5649 C.ar    1  UNL1        0.0025
     31 C         141.8665  135.1353  155.0373 C.ar    1  UNL1        0.0144
     32 C         142.7147  135.2405  156.2699 C.ar    1  UNL1        0.0476
     33 C         143.0898  134.0029  157.0301 C.ar    1  UNL1        0.0051
     34 C         143.9381  134.1081  158.2628 C.3     1  UNL1        0.0336
     35 C         144.7146  129.5597  157.8746 C.3     1  UNL1        0.0949
     36 C         144.3396  130.7972  157.1144 C.2     1  UNL1        0.2266
     37 O         145.3127  131.4092  156.1508 O.2     1  UNL1       -0.2748
     38 N         142.9916  131.4227  157.3178 N.am    1  UNL1       -0.2841
     39 H         142.3529  131.0210  157.9503 H       1  UNL1        0.1548
@<TRIPOS>BOND
     1    35    36    1
     2    36    37    2
     3    36    38   am
     4    38    28    1
     5    28    29   ar
     6    29    30   ar
     7    30    31   ar
     8    31    32   ar
     9    32    26    1
    10    26     1    1
    11     1     2   ar
    12     2     3   ar
    13     3     4   ar
    14     4     5   ar
    15     5     7    1
    16     7     8    1
    17     8     9    1
    18     9    10    1
    19    10    13    1
    20    13    14    1
    21    14    15    1
    22    15    16   ar
    23    16    17   ar
    24    17    18   ar
    25    18    21    1
    26    21    22    1
    27    22    23    1
    28    22    24    1
    29    22    25    1
    30    18    19   ar
    31    19    20   ar
    32    10    11    1
    33    11    12    1
    34     5     6   ar
    35    32    33   ar
    36    33    34    1
    37    33    28   ar
    38     6     1   ar
    39    12     7    1
    40    20    15   ar
    41    38    39    1
    42    26    27    1
@<TRIPOS>MOLECULE
*****
 39 42 0 0 0
SMALL
GASTEIGER

@<TRIPOS>ATOM
      1 C         142.7426  138.0259  157.4460 C.ar    1  UNL1        0.2245
      2 N         142.3367  139.3069  156.7796 N.ar    1  UNL1       -0.1912
      3 C         141.3716  140.2327  157.4590 C.ar    1  UNL1        0.2037
      4 N         140.8125  139.8774  158.8047 N.ar    1  UNL1       -0.1912
      5 C         141.2184  138.5964  159.4712 C.ar    1  UNL1        0.2240
      6 N         142.1835  137.6706  158.7919 N.ar    1  UNL1       -0.1806
      7 N         140.6593  138.2411  160.8170 N.pl3   1  UNL1       -0.2779
      8 C         139.1778  138.2821  161.0482 C.3     1  UNL1        0.0961
      9 C         138.6186  137.9268  162.3940 C.3     1  UNL1        0.0511
     10 C         139.5410  137.5307  163.5086 C.3     1  UNL1        0.1191
     11 C         141.0225  137.4898  163.2774 C.3     1  UNL1        0.0511
     12 C         141.5816  137.8450  161.9316 C.3     1  UNL1        0.0961
     13 O         138.9818  137.1755  164.8544 O.3     1  UNL1       -0.3514
     14 C         138.4537  138.2523  165.7552 C.3     1  UNL1        0.1685
     15 C         138.9532  139.6598  165.6143 C.ar    1  UNL1        0.0075
     16 C         138.1378  140.6738  164.8681 C.ar    1  UNL1        0.0013
     17 C         138.6373  142.0812  164.7273 C.ar    1  UNL1        0.0369
     18 C         139.9521  142.4745  165.3327 C.ar    1  UNL1        0.1468
     19 C         140.7675  141.4604  166.0789 C.ar    1  UNL1        0.0369
     20 C         140.2680  140.0531  166.2197 C.ar    1  UNL1        0.0013
     21 O         140.4516  143.8819  165.1919 O.3     1  UNL1       -0.4045
     22 C         139.9100  144.7649  164.1069 C.3     1  UNL1        0.5753
     23 F         139.3685  145.6478  163.0220 F       1  UNL1       -0.1328
     24 F         140.9158  144.2021  163.1469 F       1  UNL1       -0.1328
     25 F         138.9042  145.3277  165.0670 F       1  UNL1       -0.1328
     26 N         143.7077  137.1001  156.7667 N.pl3   1  UNL1       -0.2826
     27 H         144.6750  137.2782  156.8111 H       1  UNL1        0.1551
     28 C         142.6798  133.3586  155.9328 C.ar    1  UNL1        0.0474
     29 C         142.1819  133.5084  154.5259 C.ar    1  UNL1        0.0144
     30 C         142.1925  134.8553  153.8658 C.ar    1  UNL1        0.0025
     31 C         142.7011  136.0525  154.6128 C.ar    1  UNL1        0.0144
     32 C         143.1991  135.9028  156.0197 C.ar    1  UNL1        0.0476
     33 C         143.1884  134.5559  156.6798 C.ar    1  UNL1        0.0051
     34 C         143.6865  134.4062  158.0868 C.3     1  UNL1        0.0336
     35 C         143.9132  129.8443  157.3032 C.3     1  UNL1        0.0949
     36 C         143.9239  131.1912  156.6432 C.2     1  UNL1        0.2266
     37 O         145.1892  131.7176  156.0334 O.2     1  UNL1       -0.2748
     38 N         142.6692  132.0117  156.5929 N.am    1  UNL1       -0.2841
     39 H         141.8387  131.6662  156.9931 H       1  UNL1        0.1548
@<TRIPOS>BOND
     1    35    36    1
     2    36    37    2
     3    36    38   am
     4    38    28    1
     5    28    29   ar
     6    29    30   ar
     7    30    31   ar
     8    31    32   ar
     9    32    26    1
    10    26     1    1
    11     1     2   ar
    12     2     3   ar
    13     3     4   ar
    14     4     5   ar
    15     5     7    1
    16     7     8    1
    17     8     9    1
    18     9    10    1
    19    10    13    1
    20    13    14    1
    21    14    15    1
    22    15    16   ar
    23    16    17   ar
    24    17    18   ar
    25    18    21    1
    26    21    22    1
    27    22    23    1
    28    22    24    1
    29    22    25    1
    30    18    19   ar
    31    19    20   ar
    32    10    11    1
    33    11    12    1
    34     5     6   ar
    35    32    33   ar
    36    33    34    1
    37    33    28   ar
    38     6     1   ar
    39    12     7    1
    40    20    15   ar
    41    38    39    1
    42    26    27    1
@<TRIPOS>MOLECULE
*****
 39 42 0 0 0
SMALL
GASTEIGER

@<TRIPOS>ATOM
      1 C         142.9007  137.7093  156.9043 C.ar    1  UNL1        0.2245
      2 N         142.5330  138.9420  156.1328 N.ar    1  UNL1       -0.1912
      3 C         141.6134  139.9600  156.7395 C.ar    1  UNL1        0.2037
      4 N         141.0615  139.7453  158.1176 N.ar    1  UNL1       -0.1912
      5 C         141.4291  138.5125  158.8891 C.ar    1  UNL1        0.2240
      6 N         142.3487  137.4945  158.2825 N.ar    1  UNL1       -0.1806
      7 N         140.8772  138.2978  160.2672 N.pl3   1  UNL1       -0.2779
      8 C         141.7831  137.8537  161.3772 C.3     1  UNL1        0.0961
      9 C         141.2312  137.6390  162.7553 C.3     1  UNL1        0.0511
     10 C         139.7733  137.8685  163.0235 C.3     1  UNL1        0.1191
     11 C         138.8674  138.3126  161.9135 C.3     1  UNL1        0.0511
     12 C         139.4194  138.5273  160.5354 C.3     1  UNL1        0.0961
     13 O         139.2214  137.6538  164.4016 O.3     1  UNL1       -0.3514
     14 C         138.4388  138.7425  165.0741 C.3     1  UNL1        0.1685
     15 C         139.0894  139.5962  166.1220 C.ar    1  UNL1        0.0075
     16 C         140.0227  140.6987  165.7179 C.ar    1  UNL1        0.0013
     17 C         140.6733  141.5524  166.7657 C.ar    1  UNL1        0.0369
     18 C         140.3905  141.3036  168.2176 C.ar    1  UNL1        0.1468
     19 C         139.4572  140.2011  168.6217 C.ar    1  UNL1        0.0369
     20 C         138.8066  139.3474  167.5739 C.ar    1  UNL1        0.0013
     21 O         141.0411  142.1573  169.2655 O.3     1  UNL1       -0.4045
     22 C         140.2001  143.0246  170.1546 C.3     1  UNL1        0.5753
     23 F         139.3592  143.8918  171.0438 F       1  UNL1       -0.1328
     24 F         140.0294  144.0074  169.0344 F       1  UNL1       -0.1328
     25 F         140.3709  142.0417  171.2748 F       1  UNL1       -0.1328
     26 N         143.8203  136.6913  156.2977 N.pl3   1  UNL1       -0.2826
     27 H         144.7940  136.8359  156.3138 H       1  UNL1        0.1551
     28 C         142.6515  132.9303  155.8089 C.ar    1  UNL1        0.0474
     29 C         142.1284  132.9763  154.4039 C.ar    1  UNL1        0.0144
     30 C         142.1693  134.2607  153.6301 C.ar    1  UNL1        0.0025
     31 C         142.7332  135.4990  154.2613 C.ar    1  UNL1        0.0144
     32 C         143.2563  135.4529  155.6663 C.ar    1  UNL1        0.0476
     33 C         143.2154  134.1686  156.4401 C.ar    1  UNL1        0.0051
     34 C         143.7386  134.1226  157.8453 C.3     1  UNL1        0.0336
     35 C         143.7854  129.4850  157.4196 C.3     1  UNL1        0.0949
     36 C         143.8262  130.7693  156.6458 C.2     1  UNL1        0.2266
     37 O         145.0827  131.1771  155.9350 O.2     1  UNL1       -0.2748
     38 N         142.6107  131.6459  156.5827 N.am    1  UNL1       -0.2841
     39 H         141.7860  131.3783  157.0492 H       1  UNL1        0.1548
@<TRIPOS>BOND
     1    35    36    1
     2    36    37    2
     3    36    38   am
     4    38    28    1
     5    28    29   ar
     6    29    30   ar
     7    30    31   ar
     8    31    32   ar
     9    32    26    1
    10    26     1    1
    11     1     2   ar
    12     2     3   ar
    13     3     4   ar
    14     4     5   ar
    15     5     7    1
    16     7     8    1
    17     8     9    1
    18     9    10    1
    19    10    13    1
    20    13    14    1
    21    14    15    1
    22    15    16   ar
    23    16    17   ar
    24    17    18   ar
    25    18    21    1
    26    21    22    1
    27    22    23    1
    28    22    24    1
    29    22    25    1
    30    18    19   ar
    31    19    20   ar
    32    10    11    1
    33    11    12    1
    34     5     6   ar
    35    32    33   ar
    36    33    34    1
    37    33    28   ar
    38     6     1   ar
    39    12     7    1
    40    20    15   ar
    41    38    39    1
    42    26    27    1
@<TRIPOS>MOLECULE
*****
 39 42 0 0 0
SMALL
GASTEIGER

@<TRIPOS>ATOM
      1 C         138.3796  139.9360  163.7953 C.ar    1  UNL1        0.2245
      2 N         138.4065  138.9176  164.8962 N.ar    1  UNL1       -0.1912
      3 C         139.2409  137.6794  164.7523 C.ar    1  UNL1        0.2037
      4 N         140.0484  137.4597  163.5075 N.ar    1  UNL1       -0.1912
      5 C         140.0216  138.4781  162.4065 C.ar    1  UNL1        0.2240
      6 N         139.1872  139.7163  162.5505 N.ar    1  UNL1       -0.1806
      7 N         140.8291  138.2584  161.1618 N.pl3   1  UNL1       -0.2779
      8 C         142.2245  137.7168  161.2588 C.3     1  UNL1        0.0961
      9 C         143.0320  137.4971  160.0140 C.3     1  UNL1        0.0511
     10 C         142.4442  137.8190  158.6721 C.3     1  UNL1        0.1191
     11 C         141.0487  138.3606  158.5750 C.3     1  UNL1        0.0511
     12 C         140.2412  138.5803  159.8199 C.3     1  UNL1        0.0961
     13 O         143.2517  137.5993  157.4273 O.3     1  UNL1       -0.3514
     14 C         142.6680  136.8276  156.2810 C.3     1  UNL1        0.1685
     15 C         142.6654  135.3279  156.3105 C.ar    1  UNL1        0.0075
     16 C         143.6686  134.5925  157.1488 C.ar    1  UNL1        0.0013
     17 C         143.6661  133.0928  157.1782 C.ar    1  UNL1        0.0369
     18 C         142.6604  132.3285  156.3694 C.ar    1  UNL1        0.1468
     19 C         141.6571  133.0639  155.5311 C.ar    1  UNL1        0.0369
     20 C         141.6596  134.5636  155.5017 C.ar    1  UNL1        0.0013
     21 O         142.6578  130.8288  156.3989 O.3     1  UNL1       -0.4045
     22 C         143.8361  130.0876  156.9578 C.3     1  UNL1        0.5753
     23 F         145.0144  129.3464  157.5166 F       1  UNL1       -0.1328
     24 F         143.1147  129.9248  158.2628 F       1  UNL1       -0.1328
     25 F         144.5575  130.2504  155.6527 F       1  UNL1       -0.1328
     26 N         137.5452  141.1742  163.9393 N.pl3   1  UNL1       -0.2826
     27 H         136.5733  141.0995  164.0773 H       1  UNL1        0.1551
     28 C         139.0577  144.5400  162.4785 C.ar    1  UNL1        0.0474
     29 C         139.4846  145.2299  163.7402 C.ar    1  UNL1        0.0144
     30 C         139.2650  144.5680  165.0682 C.ar    1  UNL1        0.0025
     31 C         138.6186  143.2161  165.1345 C.ar    1  UNL1        0.0144
     32 C         138.1917  142.5262  163.8729 C.ar    1  UNL1        0.0476
     33 C         138.4113  143.1881  162.5449 C.ar    1  UNL1        0.0051
     34 C         137.9843  142.4981  161.2833 C.3     1  UNL1        0.0336
     35 C         140.7589  145.6042  159.0546 C.3     1  UNL1        0.0949
     36 C         140.5393  144.9423  160.3826 C.2     1  UNL1        0.2266
     37 O         141.5819  144.0206  160.9427 O.2     1  UNL1       -0.2748
     38 N         139.2773  145.2020  161.1505 N.am    1  UNL1       -0.2841
     39 H         138.5930  145.8069  160.7829 H       1  UNL1        0.1548
@<TRIPOS>BOND
     1    35    36    1
     2    36    37    2
     3    36    38   am
     4    38    28    1
     5    28    29   ar
     6    29    30   ar
     7    30    31   ar
     8    31    32   ar
     9    32    26    1
    10    26     1    1
    11     1     2   ar
    12     2     3   ar
    13     3     4   ar
    14     4     5   ar
    15     5     7    1
    16     7     8    1
    17     8     9    1
    18     9    10    1
    19    10    13    1
    20    13    14    1
    21    14    15    1
    22    15    16   ar
    23    16    17   ar
    24    17    18   ar
    25    18    21    1
    26    21    22    1
    27    22    23    1
    28    22    24    1
    29    22    25    1
    30    18    19   ar
    31    19    20   ar
    32    10    11    1
    33    11    12    1
    34     5     6   ar
    35    32    33   ar
    36    33    34    1
    37    33    28   ar
    38     6     1   ar
    39    12     7    1
    40    20    15   ar
    41    38    39    1
    42    26    27    1
@<TRIPOS>MOLECULE
*****
 39 42 0 0 0
SMALL
GASTEIGER

@<TRIPOS>ATOM
      1 C         136.1579  140.8511  156.4042 C.ar    1  UNL1        0.2245
      2 N         136.5514  142.2408  155.9998 N.ar    1  UNL1       -0.1912
      3 C         137.5555  143.0026  156.8131 C.ar    1  UNL1        0.2037
      4 N         138.1660  142.3747  158.0309 N.ar    1  UNL1       -0.1912
      5 C         137.7724  140.9848  158.4353 C.ar    1  UNL1        0.2240
      6 N         136.7684  140.2230  157.6220 N.ar    1  UNL1       -0.1806
      7 N         138.3829  140.3568  159.6530 N.pl3   1  UNL1       -0.2779
      8 C         138.1111  140.9338  161.0107 C.3     1  UNL1        0.0961
      9 C         138.7216  140.3058  162.2284 C.3     1  UNL1        0.0511
     10 C         139.6040  139.1008  162.0885 C.3     1  UNL1        0.1191
     11 C         139.8758  138.5239  160.7309 C.3     1  UNL1        0.0511
     12 C         139.2653  139.1519  159.5131 C.3     1  UNL1        0.0961
     13 O         140.2145  138.4728  163.3063 O.3     1  UNL1       -0.3514
     14 C         139.3938  138.2934  164.5490 C.3     1  UNL1        0.1685
     15 C         139.7657  139.0237  165.8053 C.ar    1  UNL1        0.0075
     16 C         138.7369  139.2515  166.8729 C.ar    1  UNL1        0.0013
     17 C         139.1087  139.9818  168.1292 C.ar    1  UNL1        0.0369
     18 C         140.5094  140.4844  168.3179 C.ar    1  UNL1        0.1468
     19 C         141.5382  140.2566  167.2504 C.ar    1  UNL1        0.0369
     20 C         141.1663  139.5263  165.9941 C.ar    1  UNL1        0.0013
     21 O         140.8813  141.2147  169.5743 O.3     1  UNL1       -0.4045
     22 C         140.5668  142.6747  169.7140 C.3     1  UNL1        0.5753
     23 F         140.2524  144.1347  169.8538 F       1  UNL1       -0.1328
     24 F         141.8950  143.0188  169.1078 F       1  UNL1       -0.1328
     25 F         139.2386  142.3306  170.3203 F       1  UNL1       -0.1328
     26 N         135.1538  140.0892  155.5909 N.pl3   1  UNL1       -0.2826
     27 H         135.4539  139.3835  154.9735 H       1  UNL1        0.1551
     28 C         131.4163  140.0680  156.9253 C.ar    1  UNL1        0.0474
     29 C         130.7698  141.0296  155.9728 C.ar    1  UNL1        0.0144
     30 C         131.5846  141.6777  154.8929 C.ar    1  UNL1        0.0025
     31 C         133.0459  141.3643  154.7656 C.ar    1  UNL1        0.0144
     32 C         133.6924  140.4027  155.7181 C.ar    1  UNL1        0.0476
     33 C         132.8776  139.7546  156.7980 C.ar    1  UNL1        0.0051
     34 C         133.5243  138.7930  157.7505 C.3     1  UNL1        0.0336
     35 C         128.9787  137.5452  158.7809 C.3     1  UNL1        0.0949
     36 C         129.7935  138.1933  157.7011 C.2     1  UNL1        0.2266
     37 O         129.8002  137.6148  156.3171 O.2     1  UNL1       -0.2748
     38 N         130.6015  139.4199  158.0051 N.am    1  UNL1       -0.2841
     39 H         130.5971  139.7996  158.9135 H       1  UNL1        0.1548
@<TRIPOS>BOND
     1    35    36    1
     2    36    37    2
     3    36    38   am
     4    38    28    1
     5    28    29   ar
     6    29    30   ar
     7    30    31   ar
     8    31    32   ar
     9    32    26    1
    10    26     1    1
    11     1     2   ar
    12     2     3   ar
    13     3     4   ar
    14     4     5   ar
    15     5     7    1
    16     7     8    1
    17     8     9    1
    18     9    10    1
    19    10    13    1
    20    13    14    1
    21    14    15    1
    22    15    16   ar
    23    16    17   ar
    24    17    18   ar
    25    18    21    1
    26    21    22    1
    27    22    23    1
    28    22    24    1
    29    22    25    1
    30    18    19   ar
    31    19    20   ar
    32    10    11    1
    33    11    12    1
    34     5     6   ar
    35    32    33   ar
    36    33    34    1
    37    33    28   ar
    38     6     1   ar
    39    12     7    1
    40    20    15   ar
    41    38    39    1
    42    26    27    1
@<TRIPOS>MOLECULE
*****
 39 42 0 0 0
SMALL
GASTEIGER

@<TRIPOS>ATOM
      1 C         142.7504  137.8973  157.4917 C.ar    1  UNL1        0.2245
      2 N         141.2787  137.6071  157.4959 N.ar    1  UNL1       -0.1912
      3 C         140.3507  138.4486  158.3210 C.ar    1  UNL1        0.2037
      4 N         140.8943  139.5802  159.1418 N.ar    1  UNL1       -0.1912
      5 C         142.3660  139.8705  159.1376 C.ar    1  UNL1        0.2240
      6 N         143.2940  139.0291  158.3125 N.ar    1  UNL1       -0.1806
      7 N         142.9096  141.0022  159.9584 N.pl3   1  UNL1       -0.2779
      8 C         142.4471  142.4056  159.7003 C.3     1  UNL1        0.0961
      9 C         142.9907  143.5373  160.5211 C.3     1  UNL1        0.0511
     10 C         143.9968  143.2656  161.6001 C.3     1  UNL1        0.1191
     11 C         144.4592  141.8621  161.8581 C.3     1  UNL1        0.0511
     12 C         143.9156  140.7304  161.0373 C.3     1  UNL1        0.0961
     13 O         144.5404  144.3972  162.4209 O.3     1  UNL1       -0.3514
     14 C         143.6760  145.0573  163.4539 C.3     1  UNL1        0.1685
     15 C         142.2915  144.5417  163.7139 C.ar    1  UNL1        0.0075
     16 C         142.0918  143.3319  164.5779 C.ar    1  UNL1        0.0013
     17 C         140.7075  142.8162  164.8379 C.ar    1  UNL1        0.0369
     18 C         139.5228  143.5104  164.2340 C.ar    1  UNL1        0.1468
     19 C         139.7226  144.7203  163.3701 C.ar    1  UNL1        0.0369
     20 C         141.1069  145.2359  163.1100 C.ar    1  UNL1        0.0013
     21 O         138.1384  142.9948  164.4941 O.3     1  UNL1       -0.4045
     22 C         137.6189  141.8185  163.7218 C.3     1  UNL1        0.5753
     23 F         137.0993  140.6422  162.9496 F       1  UNL1       -0.1328
     24 F         137.9415  140.9176  164.8770 F       1  UNL1       -0.1328
     25 F         137.2963  142.7193  162.5666 F       1  UNL1       -0.1328
     26 N         143.6784  137.0559  156.6666 N.pl3   1  UNL1       -0.2826
     27 H         144.6303  137.2971  156.5964 H       1  UNL1        0.1551
     28 C         142.6367  133.3015  155.9118 C.ar    1  UNL1        0.0474
     29 C         142.1114  133.4289  154.5127 C.ar    1  UNL1        0.0144
     30 C         142.1084  134.7653  153.8314 C.ar    1  UNL1        0.0025
     31 C         142.6307  135.9743  154.5494 C.ar    1  UNL1        0.0144
     32 C         143.1560  135.8469  155.9486 C.ar    1  UNL1        0.0476
     33 C         143.1590  134.5105  156.6298 C.ar    1  UNL1        0.0051
     34 C         143.6844  134.3831  158.0291 C.3     1  UNL1        0.0336
     35 C         143.8882  129.7929  157.2805 C.3     1  UNL1        0.0949
     36 C         143.8852  131.1292  156.5993 C.2     1  UNL1        0.2266
     37 O         145.1278  131.6298  155.9242 O.2     1  UNL1       -0.2748
     38 N         142.6398  131.9651  156.5931 N.am    1  UNL1       -0.2841
     39 H         141.8243  131.6366  157.0361 H       1  UNL1        0.1548
@<TRIPOS>BOND
     1    35    36    1
     2    36    37    2
     3    36    38   am
     4    38    28    1
     5    28    29   ar
     6    29    30   ar
     7    30    31   ar
     8    31    32   ar
     9    32    26    1
    10    26     1    1
    11     1     2   ar
    12     2     3   ar
    13     3     4   ar
    14     4     5   ar
    15     5     7    1
    16     7     8    1
    17     8     9    1
    18     9    10    1
    19    10    13    1
    20    13    14    1
    21    14    15    1
    22    15    16   ar
    23    16    17   ar
    24    17    18   ar
    25    18    21    1
    26    21    22    1
    27    22    23    1
    28    22    24    1
    29    22    25    1
    30    18    19   ar
    31    19    20   ar
    32    10    11    1
    33    11    12    1
    34     5     6   ar
    35    32    33   ar
    36    33    34    1
    37    33    28   ar
    38     6     1   ar
    39    12     7    1
    40    20    15   ar
    41    38    39    1
    42    26    27    1
@<TRIPOS>MOLECULE
*****
 39 42 0 0 0
SMALL
GASTEIGER

@<TRIPOS>ATOM
      1 C         143.3999  139.8256  159.6042 C.ar    1  UNL1        0.2245
      2 N         143.5319  138.7438  158.5735 N.ar    1  UNL1       -0.1912
      3 C         142.8085  137.4425  158.7551 C.ar    1  UNL1        0.2037
      4 N         141.9529  137.2228  159.9674 N.ar    1  UNL1       -0.1912
      5 C         141.8208  138.3045  160.9982 C.ar    1  UNL1        0.2240
      6 N         142.5443  139.6059  160.8166 N.ar    1  UNL1       -0.1806
      7 N         140.9653  138.0848  162.2106 N.pl3   1  UNL1       -0.2779
      8 C         141.6010  137.7395  163.5246 C.3     1  UNL1        0.0961
      9 C         140.7455  137.5198  164.7369 C.3     1  UNL1        0.0511
     10 C         139.2542  137.6455  164.6352 C.3     1  UNL1        0.1191
     11 C         138.6185  137.9908  163.3212 C.3     1  UNL1        0.0511
     12 C         139.4741  138.2105  162.1089 C.3     1  UNL1        0.0961
     13 O         138.3987  137.4258  165.8476 O.3     1  UNL1       -0.3514
     14 C         137.8333  138.6005  166.5894 C.3     1  UNL1        0.1685
     15 C         138.7043  139.3879  167.5230 C.ar    1  UNL1        0.0075
     16 C         138.3547  139.4772  168.9789 C.ar    1  UNL1        0.0013
     17 C         139.2256  140.2645  169.9125 C.ar    1  UNL1        0.0369
     18 C         140.4461  140.9625  169.3901 C.ar    1  UNL1        0.1468
     19 C         140.7957  140.8733  167.9341 C.ar    1  UNL1        0.0369
     20 C         139.9248  140.0860  167.0005 C.ar    1  UNL1        0.0013
     21 O         141.3172  141.7499  170.3236 O.3     1  UNL1       -0.4045
     22 C         142.7438  142.0343  169.9577 C.3     1  UNL1        0.5753
     23 F         144.1704  142.3188  169.5919 F       1  UNL1       -0.1328
     24 F         142.3852  143.4620  169.6695 F       1  UNL1       -0.1328
     25 F         143.1024  140.6066  170.2460 F       1  UNL1       -0.1328
     26 N         144.1233  141.1269  159.4226 N.pl3   1  UNL1       -0.2826
     27 H         144.6648  141.2806  158.6148 H       1  UNL1        0.1551
     28 C         142.8716  144.3279  161.4068 C.ar    1  UNL1        0.0474
     29 C         143.8188  144.3288  162.5699 C.ar    1  UNL1        0.0144
     30 C         144.8675  143.2624  162.6839 C.ar    1  UNL1        0.0025
     31 C         144.9690  142.1951  161.6348 C.ar    1  UNL1        0.0144
     32 C         144.0218  142.1942  160.4717 C.ar    1  UNL1        0.0476
     33 C         142.9731  143.2606  160.3578 C.ar    1  UNL1        0.0051
     34 C         142.0258  143.2597  159.1946 C.3     1  UNL1        0.0336
     35 C         139.4226  146.2523  161.7953 C.3     1  UNL1        0.0949
     36 C         140.4713  145.1860  161.9093 C.2     1  UNL1        0.2266
     37 O         140.1685  143.9112  162.6397 O.2     1  UNL1       -0.2748
     38 N         141.8228  145.3943  161.2929 N.am    1  UNL1       -0.2841
     39 H         142.0216  146.2309  160.8135 H       1  UNL1        0.1548
@<TRIPOS>BOND
     1    35    36    1
     2    36    37    2
     3    36    38   am
     4    38    28    1
     5    28    29   ar
     6    29    30   ar
     7    30    31   ar
     8    31    32   ar
     9    32    26    1
    10    26     1    1
    11     1     2   ar
    12     2     3   ar
    13     3     4   ar
    14     4     5   ar
    15     5     7    1
    16     7     8    1
    17     8     9    1
    18     9    10    1
    19    10    13    1
    20    13    14    1
    21    14    15    1
    22    15    16   ar
    23    16    17   ar
    24    17    18   ar
    25    18    21    1
    26    21    22    1
    27    22    23    1
    28    22    24    1
    29    22    25    1
    30    18    19   ar
    31    19    20   ar
    32    10    11    1
    33    11    12    1
    34     5     6   ar
    35    32    33   ar
    36    33    34    1
    37    33    28   ar
    38     6     1   ar
    39    12     7    1
    40    20    15   ar
    41    38    39    1
    42    26    27    1
