@<TRIPOS>MOLECULE
*****
 26 28 0 0 0
SMALL
GASTEIGER

@<TRIPOS>ATOM
      1 C         141.1539  139.6957  166.4832 C.ar    1  UNL1       -0.0078
      2 C         140.4188  139.7585  165.1772 C.ar    1  UNL1        0.0001
      3 C         141.0466  139.1981  163.9356 C.ar    1  UNL1        0.0366
      4 C         142.4095  138.5748  163.9999 C.ar    1  UNL1        0.1390
      5 C         143.1445  138.5119  165.3060 C.ar    1  UNL1        0.0366
      6 C         142.5167  139.0724  166.5476 C.ar    1  UNL1        0.0001
      7 C         140.0896  141.6490  169.6640 C.3     1  UNL1        0.1315
      8 C         139.0305  140.5882  169.6074 C.3     1  UNL1        0.0268
      9 C         139.3003  139.7274  168.4089 C.3     1  UNL1        0.0221
     10 C         140.5261  140.2562  167.7249 C.3     1  UNL1        0.0772
     11 N         141.0139  141.4437  168.5006 N.3     1  UNL1       -0.2890
     12 H         141.0097  142.2717  167.9050 H       1  UNL1        0.1239
     13 N         140.0962  144.1675  170.3019 N.am    1  UNL1       -0.3277
     14 C         140.2042  142.7259  170.7019 C.2     1  UNL1        0.2336
     15 O         140.4268  142.3612  172.1397 O.2     1  UNL1       -0.2739
     16 H         140.1714  144.8743  170.9831 H       1  UNL1        0.1450
     17 H         139.9500  144.4069  169.3582 H       1  UNL1        0.1450
     18 O         143.0373  138.0143  162.7582 O.3     1  UNL1       -0.4706
     19 C         144.0885  138.7981  162.0299 C.3     1  UNL1        0.2320
     20 C         144.1851  140.2826  162.2222 C.ar    1  UNL1        0.0213
     21 C         143.3225  141.2019  161.4094 C.ar    1  UNL1        0.0016
     22 C         143.4191  142.6864  161.6018 C.ar    1  UNL1        0.0294
     23 C         144.3783  143.2515  162.6070 C.ar    1  UNL1        0.1401
     24 F         144.4749  144.7360  162.7994 F       1  UNL1       -0.2042
     25 C         145.2410  142.3322  163.4199 C.ar    1  UNL1        0.0294
     26 C         145.1443  140.8478  163.2275 C.ar    1  UNL1        0.0016
@<TRIPOS>BOND
     1    13    14   am
     2    14    15    2
     3     7    14    1
     4     7     8    1
     5     8     9    1
     6     9    10    1
     7    10     1    1
     8     1     2   ar
     9     2     3   ar
    10     3     4   ar
    11     4    18    1
    12    18    19    1
    13    19    20    1
    14    20    21   ar
    15    21    22   ar
    16    22    23   ar
    17    23    24    1
    18    23    25   ar
    19    25    26   ar
    20     4     5   ar
    21     5     6   ar
    22    10    11    1
    23    11     7    1
    24     6     1   ar
    25    26    20   ar
    26    13    16    1
    27    13    17    1
    28    11    12    1
@<TRIPOS>MOLECULE
*****
 26 28 0 0 0
SMALL
GASTEIGER

@<TRIPOS>ATOM
      1 C         140.5351  139.6608  166.6394 C.ar    1  UNL1       -0.0078
      2 C         139.0467  139.4751  166.6300 C.ar    1  UNL1        0.0001
      3 C         138.3506  139.0607  165.3676 C.ar    1  UNL1        0.0366
      4 C         139.1430  138.8320  164.1146 C.ar    1  UNL1        0.1390
      5 C         140.6314  139.0177  164.1241 C.ar    1  UNL1        0.0366
      6 C         141.3274  139.4321  165.3865 C.ar    1  UNL1        0.0001
      7 C         141.7925  141.2528  169.9485 C.3     1  UNL1        0.1315
      8 C         142.8126  140.1728  169.7405 C.3     1  UNL1        0.0268
      9 C         142.4657  139.4450  168.4756 C.3     1  UNL1        0.0221
     10 C         141.2313  140.0752  167.9019 C.3     1  UNL1        0.0772
     11 N         140.8153  141.1924  168.8122 N.3     1  UNL1       -0.2890
     12 H         139.8772  141.0152  169.1714 H       1  UNL1        0.1239
     13 N         142.8399  143.2494  171.2395 N.am    1  UNL1       -0.3277
     14 C         141.7562  142.2229  171.0921 C.2     1  UNL1        0.2336
     15 O         140.6361  142.1664  172.0882 O.2     1  UNL1       -0.2739
     16 H         142.8161  143.8860  171.9901 H       1  UNL1        0.1450
     17 H         143.5751  143.2865  170.5858 H       1  UNL1        0.1450
     18 O         138.4468  138.4176  162.8522 O.3     1  UNL1       -0.4706
     19 C         137.7534  139.4441  162.0064 C.3     1  UNL1        0.2320
     20 C         138.0899  140.8974  162.1643 C.ar    1  UNL1        0.0213
     21 C         137.2976  141.7524  163.1083 C.ar    1  UNL1        0.0016
     22 C         137.6341  143.2056  163.2661 C.ar    1  UNL1        0.0294
     23 C         138.7629  143.8038  162.4799 C.ar    1  UNL1        0.1401
     24 F         139.0994  145.2571  162.6378 F       1  UNL1       -0.2042
     25 C         139.5551  142.9488  161.5359 C.ar    1  UNL1        0.0294
     26 C         139.2186  141.4956  161.3781 C.ar    1  UNL1        0.0016
@<TRIPOS>BOND
     1    13    14   am
     2    14    15    2
     3     7    14    1
     4     7     8    1
     5     8     9    1
     6     9    10    1
     7    10     1    1
     8     1     2   ar
     9     2     3   ar
    10     3     4   ar
    11     4    18    1
    12    18    19    1
    13    19    20    1
    14    20    21   ar
    15    21    22   ar
    16    22    23   ar
    17    23    24    1
    18    23    25   ar
    19    25    26   ar
    20     4     5   ar
    21     5     6   ar
    22    10    11    1
    23    11     7    1
    24     6     1   ar
    25    26    20   ar
    26    13    16    1
    27    13    17    1
    28    11    12    1
@<TRIPOS>MOLECULE
*****
 26 28 0 0 0
SMALL
GASTEIGER

@<TRIPOS>ATOM
      1 C         139.5497  140.5151  166.1704 C.ar    1  UNL1       -0.0078
      2 C         139.1579  141.3166  164.9646 C.ar    1  UNL1        0.0001
      3 C         138.6590  140.6223  163.7322 C.ar    1  UNL1        0.0366
      4 C         138.5518  139.1264  163.7056 C.ar    1  UNL1        0.1390
      5 C         138.9436  138.3248  164.9114 C.ar    1  UNL1        0.0366
      6 C         139.4425  139.0191  166.1438 C.ar    1  UNL1        0.0001
      7 C         140.7945  141.6286  169.6741 C.3     1  UNL1        0.1315
      8 C         140.8385  142.9273  168.9247 C.3     1  UNL1        0.0268
      9 C         140.3776  142.6682  167.5210 C.3     1  UNL1        0.0221
     10 C         140.0487  141.2094  167.4029 C.3     1  UNL1        0.0772
     11 N         140.3063  140.5670  168.7336 N.3     1  UNL1       -0.2890
     12 H         141.0144  139.8393  168.6354 H       1  UNL1        0.1239
     13 N         142.2782  140.4794  171.4708 N.am    1  UNL1       -0.3277
     14 C         141.1723  141.4270  171.1117 C.2     1  UNL1        0.2336
     15 O         140.4442  142.1731  172.1903 O.2     1  UNL1       -0.2739
     16 H         142.5261  140.3471  172.4143 H       1  UNL1        0.1450
     17 H         142.7560  139.9897  170.7629 H       1  UNL1        0.1450
     18 O         138.0528  138.4320  162.4731 O.3     1  UNL1       -0.4706
     19 C         139.0086  138.0788  161.3723 C.3     1  UNL1        0.2320
     20 C         140.4401  138.5201  161.4516 C.ar    1  UNL1        0.0213
     21 C         141.4424  137.6847  162.1914 C.ar    1  UNL1        0.0016
     22 C         142.8739  138.1259  162.2707 C.ar    1  UNL1        0.0294
     23 C         143.3029  139.4025  161.6102 C.ar    1  UNL1        0.1401
     24 F         144.7344  139.8437  161.6895 F       1  UNL1       -0.2042
     25 C         142.3005  140.2378  160.8703 C.ar    1  UNL1        0.0294
     26 C         140.8691  139.7966  160.7911 C.ar    1  UNL1        0.0016
@<TRIPOS>BOND
     1    13    14   am
     2    14    15    2
     3     7    14    1
     4     7     8    1
     5     8     9    1
     6     9    10    1
     7    10     1    1
     8     1     2   ar
     9     2     3   ar
    10     3     4   ar
    11     4    18    1
    12    18    19    1
    13    19    20    1
    14    20    21   ar
    15    21    22   ar
    16    22    23   ar
    17    23    24    1
    18    23    25   ar
    19    25    26   ar
    20     4     5   ar
    21     5     6   ar
    22    10    11    1
    23    11     7    1
    24     6     1   ar
    25    26    20   ar
    26    13    16    1
    27    13    17    1
    28    11    12    1
@<TRIPOS>MOLECULE
*****
 26 28 0 0 0
SMALL
GASTEIGER

@<TRIPOS>ATOM
      1 C         139.2416  140.1363  166.2756 C.ar    1  UNL1       -0.0078
      2 C         139.2571  138.6483  166.0875 C.ar    1  UNL1        0.0001
      3 C         138.9106  138.0573  164.7531 C.ar    1  UNL1        0.0366
      4 C         138.5486  138.9545  163.6068 C.ar    1  UNL1        0.1390
      5 C         138.5331  140.4425  163.7948 C.ar    1  UNL1        0.0366
      6 C         138.8796  141.0334  165.1292 C.ar    1  UNL1        0.0001
      7 C         140.3958  142.2458  169.3225 C.3     1  UNL1        0.1315
      8 C         139.8469  141.0277  170.0045 C.3     1  UNL1        0.0268
      9 C         139.3477  140.0893  168.9461 C.3     1  UNL1        0.0221
     10 C         139.5881  140.7274  167.6100 C.3     1  UNL1        0.0772
     11 N         140.2359  142.0601  167.8427 N.3     1  UNL1       -0.2890
     12 H         139.6480  142.8018  167.4623 H       1  UNL1        0.1239
     13 N         142.4020  143.3745  170.5271 N.am    1  UNL1       -0.3277
     14 C         140.9987  143.4399  170.0012 C.2     1  UNL1        0.2336
     15 O         140.1984  144.6993  170.1541 O.2     1  UNL1       -0.2739
     16 H         142.7977  144.1582  170.9726 H       1  UNL1        0.1450
     17 H         142.9273  142.5479  170.4268 H       1  UNL1        0.1450
     18 O         138.2021  138.3634  162.2723 O.3     1  UNL1       -0.4706
     19 C         139.2878  138.0514  161.2855 C.3     1  UNL1        0.2320
     20 C         140.6766  138.5729  161.5085 C.ar    1  UNL1        0.0213
     21 C         141.0551  139.9357  161.0090 C.ar    1  UNL1        0.0016
     22 C         142.4438  140.4571  161.2320 C.ar    1  UNL1        0.0294
     23 C         143.4538  139.6157  161.9544 C.ar    1  UNL1        0.1401
     24 F         144.8426  140.1372  162.1774 F       1  UNL1       -0.2042
     25 C         143.0753  138.2529  162.4539 C.ar    1  UNL1        0.0294
     26 C         141.6866  137.7315  162.2309 C.ar    1  UNL1        0.0016
@<TRIPOS>BOND
     1    13    14   am
     2    14    15    2
     3     7    14    1
     4     7     8    1
     5     8     9    1
     6     9    10    1
     7    10     1    1
     8     1     2   ar
     9     2     3   ar
    10     3     4   ar
    11     4    18    1
    12    18    19    1
    13    19    20    1
    14    20    21   ar
    15    21    22   ar
    16    22    23   ar
    17    23    24    1
    18    23    25   ar
    19    25    26   ar
    20     4     5   ar
    21     5     6   ar
    22    10    11    1
    23    11     7    1
    24     6     1   ar
    25    26    20   ar
    26    13    16    1
    27    13    17    1
    28    11    12    1
@<TRIPOS>MOLECULE
*****
 26 28 0 0 0
SMALL
GASTEIGER

@<TRIPOS>ATOM
      1 C         142.7376  140.5260  167.1702 C.ar    1  UNL1       -0.0078
      2 C         142.9291  139.0456  167.0234 C.ar    1  UNL1        0.0001
      3 C         143.5104  138.4863  165.7588 C.ar    1  UNL1        0.0366
      4 C         143.9003  139.4075  164.6410 C.ar    1  UNL1        0.1390
      5 C         143.7088  140.8879  164.7878 C.ar    1  UNL1        0.0366
      6 C         143.1275  141.4472  166.0524 C.ar    1  UNL1        0.0001
      7 C         140.9023  142.4707  169.9836 C.3     1  UNL1        0.1315
      8 C         141.6212  141.4211  170.7783 C.3     1  UNL1        0.0268
      9 C         142.3962  140.5649  169.8211 C.3     1  UNL1        0.0221
     10 C         142.1563  141.0853  168.4348 C.3     1  UNL1        0.0772
     11 N         141.2330  142.2632  168.5353 N.3     1  UNL1       -0.2890
     12 H         140.3793  142.0797  168.0081 H       1  UNL1        0.1239
     13 N         138.8763  143.1722  171.4510 N.am    1  UNL1       -0.3277
     14 C         140.0094  143.5402  170.5396 C.2     1  UNL1        0.2336
     15 O         140.2497  144.9775  170.1842 O.2     1  UNL1       -0.2739
     16 H         138.2903  143.8741  171.8159 H       1  UNL1        0.1450
     17 H         138.7186  142.2289  171.6843 H       1  UNL1        0.1450
     18 O         144.4816  138.8482  163.3763 O.3     1  UNL1       -0.4706
     19 C         143.5748  138.3666  162.2829 C.3     1  UNL1        0.2320
     20 C         142.0937  138.5792  162.3887 C.ar    1  UNL1        0.0213
     21 C         141.4848  139.8654  161.9146 C.ar    1  UNL1        0.0016
     22 C         140.0037  140.0779  162.0205 C.ar    1  UNL1        0.0294
     23 C         139.1315  139.0042  162.6004 C.ar    1  UNL1        0.1401
     24 F         137.6504  139.2167  162.7063 F       1  UNL1       -0.2042
     25 C         139.7404  137.7179  163.0745 C.ar    1  UNL1        0.0294
     26 C         141.2215  137.5054  162.9687 C.ar    1  UNL1        0.0016
@<TRIPOS>BOND
     1    13    14   am
     2    14    15    2
     3     7    14    1
     4     7     8    1
     5     8     9    1
     6     9    10    1
     7    10     1    1
     8     1     2   ar
     9     2     3   ar
    10     3     4   ar
    11     4    18    1
    12    18    19    1
    13    19    20    1
    14    20    21   ar
    15    21    22   ar
    16    22    23   ar
    17    23    24    1
    18    23    25   ar
    19    25    26   ar
    20     4     5   ar
    21     5     6   ar
    22    10    11    1
    23    11     7    1
    24     6     1   ar
    25    26    20   ar
    26    13    16    1
    27    13    17    1
    28    11    12    1
@<TRIPOS>MOLECULE
*****
 26 28 0 0 0
SMALL
GASTEIGER

@<TRIPOS>ATOM
      1 C         142.8205  141.2728  166.2785 C.ar    1  UNL1       -0.0078
      2 C         142.5502  140.5290  165.0043 C.ar    1  UNL1        0.0001
      3 C         142.9392  141.1318  163.6870 C.ar    1  UNL1        0.0366
      4 C         143.5986  142.4784  163.6439 C.ar    1  UNL1        0.1390
      5 C         143.8689  143.2222  164.9181 C.ar    1  UNL1        0.0366
      6 C         143.4799  142.6194  166.2354 C.ar    1  UNL1        0.0001
      7 C         141.4175  140.3475  169.7772 C.3     1  UNL1        0.1315
      8 C         142.2484  139.1373  169.4688 C.3     1  UNL1        0.0268
      9 C         142.8751  139.3367  168.1207 C.3     1  UNL1        0.0221
     10 C         142.4315  140.6700  167.5958 C.3     1  UNL1        0.0772
     11 N         141.5307  141.2947  168.6196 N.3     1  UNL1       -0.2890
     12 H         140.6088  141.4590  168.2153 H       1  UNL1        0.1239
     13 N         139.7058  139.4924  171.5347 N.am    1  UNL1       -0.3277
     14 C         140.6144  140.5712  171.0242 C.2     1  UNL1        0.2336
     15 O         140.7200  141.8736  171.7608 O.2     1  UNL1       -0.2739
     16 H         139.1787  139.6392  172.3531 H       1  UNL1        0.1450
     17 H         139.6365  138.6376  171.0513 H       1  UNL1        0.1450
     18 O         143.9876  143.0812  162.3265 O.3     1  UNL1       -0.4706
     19 C         142.9994  143.9088  161.5595 C.3     1  UNL1        0.2320
     20 C         141.5800  144.0128  162.0334 C.ar    1  UNL1        0.0213
     21 C         141.1981  145.0641  163.0328 C.ar    1  UNL1        0.0016
     22 C         139.7787  145.1679  163.5068 C.ar    1  UNL1        0.0294
     23 C         138.7413  144.2205  162.9813 C.ar    1  UNL1        0.1401
     24 F         137.3219  144.3244  163.4553 F       1  UNL1       -0.2042
     25 C         139.1232  143.1692  161.9819 C.ar    1  UNL1        0.0294
     26 C         140.5426  143.0653  161.5079 C.ar    1  UNL1        0.0016
@<TRIPOS>BOND
     1    13    14   am
     2    14    15    2
     3     7    14    1
     4     7     8    1
     5     8     9    1
     6     9    10    1
     7    10     1    1
     8     1     2   ar
     9     2     3   ar
    10     3     4   ar
    11     4    18    1
    12    18    19    1
    13    19    20    1
    14    20    21   ar
    15    21    22   ar
    16    22    23   ar
    17    23    24    1
    18    23    25   ar
    19    25    26   ar
    20     4     5   ar
    21     5     6   ar
    22    10    11    1
    23    11     7    1
    24     6     1   ar
    25    26    20   ar
    26    13    16    1
    27    13    17    1
    28    11    12    1
@<TRIPOS>MOLECULE
*****
 26 28 0 0 0
SMALL
GASTEIGER

@<TRIPOS>ATOM
      1 C         140.3722  139.2094  166.5006 C.ar    1  UNL1       -0.0078
      2 C         139.2139  138.5651  165.7983 C.ar    1  UNL1        0.0001
      3 C         139.4130  137.9222  164.4579 C.ar    1  UNL1        0.0366
      4 C         140.7704  137.9235  163.8196 C.ar    1  UNL1        0.1390
      5 C         141.9287  138.5678  164.5218 C.ar    1  UNL1        0.0366
      6 C         141.7296  139.2107  165.8623 C.ar    1  UNL1        0.0001
      7 C         140.5925  141.0305  169.9212 C.3     1  UNL1        0.1315
      8 C         139.1411  140.6529  169.8868 C.3     1  UNL1        0.0268
      9 C         138.8820  139.9248  168.6012 C.3     1  UNL1        0.0221
     10 C         140.1732  139.8523  167.8411 C.3     1  UNL1        0.0772
     11 N         141.2303  140.5357  168.6569 N.3     1  UNL1       -0.2890
     12 H         141.6172  141.3213  168.1339 H       1  UNL1        0.1239
     13 N         142.7534  142.0609  170.9304 N.am    1  UNL1       -0.3277
     14 C         141.2845  141.7725  171.0259 C.2     1  UNL1        0.2336
     15 O         140.5077  142.2262  172.2262 O.2     1  UNL1       -0.2739
     16 H         143.2076  142.5480  171.6555 H       1  UNL1        0.1450
     17 H         143.2633  141.7632  170.1427 H       1  UNL1        0.1450
     18 O         140.9694  137.2805  162.4790 O.3     1  UNL1       -0.4706
     19 C         140.6300  138.0347  161.2276 C.3     1  UNL1        0.2320
     20 C         139.8753  139.3283  161.3130 C.ar    1  UNL1        0.0213
     21 C         138.3763  139.3270  161.2591 C.ar    1  UNL1        0.0016
     22 C         137.6216  140.6205  161.3444 C.ar    1  UNL1        0.0294
     23 C         138.3660  141.9153  161.4836 C.ar    1  UNL1        0.1401
     24 F         137.6113  143.2088  161.5689 F       1  UNL1       -0.2042
     25 C         139.8650  141.9166  161.5374 C.ar    1  UNL1        0.0294
     26 C         140.6196  140.6231  161.4521 C.ar    1  UNL1        0.0016
@<TRIPOS>BOND
     1    13    14   am
     2    14    15    2
     3     7    14    1
     4     7     8    1
     5     8     9    1
     6     9    10    1
     7    10     1    1
     8     1     2   ar
     9     2     3   ar
    10     3     4   ar
    11     4    18    1
    12    18    19    1
    13    19    20    1
    14    20    21   ar
    15    21    22   ar
    16    22    23   ar
    17    23    24    1
    18    23    25   ar
    19    25    26   ar
    20     4     5   ar
    21     5     6   ar
    22    10    11    1
    23    11     7    1
    24     6     1   ar
    25    26    20   ar
    26    13    16    1
    27    13    17    1
    28    11    12    1
@<TRIPOS>MOLECULE
*****
 26 28 0 0 0
SMALL
GASTEIGER

@<TRIPOS>ATOM
      1 C         142.6577  140.0891  166.1590 C.ar    1  UNL1       -0.0078
      2 C         143.5418  140.7852  165.1672 C.ar    1  UNL1        0.0001
      3 C         143.8540  140.1325  163.8532 C.ar    1  UNL1        0.0366
      4 C         143.2821  138.7838  163.5311 C.ar    1  UNL1        0.1390
      5 C         142.3980  138.0877  164.5229 C.ar    1  UNL1        0.0366
      6 C         142.0858  138.7403  165.8368 C.ar    1  UNL1        0.0001
      7 C         141.4497  141.1530  169.6909 C.3     1  UNL1        0.1315
      8 C         142.2802  142.3391  169.2991 C.3     1  UNL1        0.0268
      9 C         142.8337  142.0849  167.9284 C.3     1  UNL1        0.0221
     10 C         142.3454  140.7417  167.4730 C.3     1  UNL1        0.0772
     11 N         141.4900  140.1658  168.5623 N.3     1  UNL1       -0.2890
     12 H         141.8894  139.2851  168.8869 H       1  UNL1        0.1239
     13 N         139.9692  139.7092  171.2637 N.am    1  UNL1       -0.3277
     14 C         140.7090  140.9838  170.9843 C.2     1  UNL1        0.2336
     15 O         140.7081  142.0892  171.9982 O.2     1  UNL1       -0.2739
     16 H         139.4830  139.5982  172.1126 H       1  UNL1        0.1450
     17 H         139.9698  138.9837  170.5982 H       1  UNL1        0.1450
     18 O         143.5943  138.1311  162.2170 O.3     1  UNL1       -0.4706
     19 C         142.6367  138.2593  161.0697 C.3     1  UNL1        0.2320
     20 C         141.2913  138.8876  161.2822 C.ar    1  UNL1        0.0213
     21 C         141.1220  140.3695  161.1232 C.ar    1  UNL1        0.0016
     22 C         139.7767  140.9978  161.3358 C.ar    1  UNL1        0.0294
     23 C         138.6005  140.1441  161.7073 C.ar    1  UNL1        0.1401
     24 F         137.2551  140.7725  161.9199 F       1  UNL1       -0.2042
     25 C         138.7698  138.6622  161.8663 C.ar    1  UNL1        0.0294
     26 C         140.1152  138.0340  161.6538 C.ar    1  UNL1        0.0016
@<TRIPOS>BOND
     1    13    14   am
     2    14    15    2
     3     7    14    1
     4     7     8    1
     5     8     9    1
     6     9    10    1
     7    10     1    1
     8     1     2   ar
     9     2     3   ar
    10     3     4   ar
    11     4    18    1
    12    18    19    1
    13    19    20    1
    14    20    21   ar
    15    21    22   ar
    16    22    23   ar
    17    23    24    1
    18    23    25   ar
    19    25    26   ar
    20     4     5   ar
    21     5     6   ar
    22    10    11    1
    23    11     7    1
    24     6     1   ar
    25    26    20   ar
    26    13    16    1
    27    13    17    1
    28    11    12    1
@<TRIPOS>MOLECULE
*****
 26 28 0 0 0
SMALL
GASTEIGER

@<TRIPOS>ATOM
      1 C         141.1935  142.7581  166.1467 C.ar    1  UNL1       -0.0078
      2 C         142.3432  142.8956  165.1932 C.ar    1  UNL1        0.0001
      3 C         142.2104  143.7659  163.9788 C.ar    1  UNL1        0.0366
      4 C         140.9278  144.4986  163.7178 C.ar    1  UNL1        0.1390
      5 C         139.7781  144.3611  164.6713 C.ar    1  UNL1        0.0366
      6 C         139.9109  143.4908  165.8857 C.ar    1  UNL1        0.0001
      7 C         141.0240  140.9701  169.5877 C.3     1  UNL1        0.1315
      8 C         142.0375  140.1267  168.8724 C.3     1  UNL1        0.0268
      9 C         142.2243  140.6938  167.4964 C.3     1  UNL1        0.0221
     10 C         141.3263  141.8877  167.3612 C.3     1  UNL1        0.0772
     11 N         140.5845  142.0585  168.6537 N.3     1  UNL1       -0.2890
     12 H         139.5804  141.9882  168.4884 H       1  UNL1        0.1239
     13 N         139.8950  139.4616  171.3764 N.am    1  UNL1       -0.3277
     14 C         140.5357  140.7618  170.9906 C.2     1  UNL1        0.2336
     15 O         140.6882  141.8536  172.0078 O.2     1  UNL1       -0.2739
     16 H         139.5746  139.3248  172.2972 H       1  UNL1        0.1450
     17 H         139.7949  138.7449  170.7088 H       1  UNL1        0.1450
     18 O         140.7950  145.3690  162.5033 O.3     1  UNL1       -0.4706
     19 C         139.8655  144.9728  161.3947 C.3     1  UNL1        0.2320
     20 C         139.6051  143.5219  161.1167 C.ar    1  UNL1        0.0213
     21 C         138.3225  142.8899  161.5697 C.ar    1  UNL1        0.0016
     22 C         138.0622  141.4391  161.2916 C.ar    1  UNL1        0.0294
     23 C         139.0845  140.6203  160.5606 C.ar    1  UNL1        0.1401
     24 F         138.8242  139.1694  160.2826 F       1  UNL1       -0.2042
     25 C         140.3672  141.2524  160.1076 C.ar    1  UNL1        0.0294
     26 C         140.6275  142.7032  160.3857 C.ar    1  UNL1        0.0016
@<TRIPOS>BOND
     1    13    14   am
     2    14    15    2
     3     7    14    1
     4     7     8    1
     5     8     9    1
     6     9    10    1
     7    10     1    1
     8     1     2   ar
     9     2     3   ar
    10     3     4   ar
    11     4    18    1
    12    18    19    1
    13    19    20    1
    14    20    21   ar
    15    21    22   ar
    16    22    23   ar
    17    23    24    1
    18    23    25   ar
    19    25    26   ar
    20     4     5   ar
    21     5     6   ar
    22    10    11    1
    23    11     7    1
    24     6     1   ar
    25    26    20   ar
    26    13    16    1
    27    13    17    1
    28    11    12    1
