@<TRIPOS>MOLECULE
*****
 34 38 0 0 0
SMALL
GASTEIGER

@<TRIPOS>ATOM
      1 C         140.4692  138.3821  163.0758 C.2     1  UNL1        0.2806
      2 O         140.7656  136.9310  162.8383 O.2     1  UNL1       -0.2668
      3 N         140.5063  139.3521  161.9322 N.am    1  UNL1       -0.2999
      4 H         140.3117  140.3045  162.0881 H       1  UNL1        0.1498
      5 C         141.3098  141.7279  168.6300 C.ar    1  UNL1        0.1690
      6 C         141.6433  141.2468  167.2490 C.ar    1  UNL1        0.0768
      7 C         140.7227  140.2956  166.5435 C.ar    1  UNL1        0.1517
      8 O         141.0563  139.8145  165.1624 O.2     1  UNL1       -0.4486
      9 C         140.1357  138.8632  164.4568 C.ar    1  UNL1        0.2014
     10 C         138.8816  138.3931  165.1324 C.ar    1  UNL1        0.0843
     11 C         138.5482  138.8742  166.5135 C.ar    1  UNL1        0.2019
     12 O         137.2941  138.4041  167.1890 O.2     1  UNL1       -0.2864
     13 C         139.4687  139.8254  167.2190 C.ar    1  UNL1        0.0760
     14 C         139.1352  140.3065  168.6000 C.ar    1  UNL1        0.0390
     15 C         140.0558  141.2577  169.3055 C.ar    1  UNL1        0.1741
     16 F         139.7223  141.7388  170.6866 F       1  UNL1       -0.2010
     17 C         143.6169  142.2442  169.7072 C.3     1  UNL1        0.2526
     18 O         142.2304  142.6791  169.3355 O.3     1  UNL1       -0.4691
     19 C         140.8397  138.8710  160.5512 C.3     1  UNL1        0.0747
     20 C         142.2701  138.6417  160.1618 C.3     1  UNL1        0.0369
     21 C         142.6036  138.1606  158.7808 C.3     1  UNL1        0.0741
     22 N         141.5068  137.9087  157.7892 N.3     1  UNL1       -0.2688
     23 C         140.0764  138.1379  158.1785 C.3     1  UNL1        0.0741
     24 C         139.7429  138.6191  159.5595 C.3     1  UNL1        0.0369
     25 C         141.8403  137.4275  156.4081 C.3     1  UNL1        0.0992
     26 C         142.0795  135.9676  156.1599 C.ar    1  UNL1       -0.0029
     27 C         141.1678  135.2030  155.2464 C.ar    1  UNL1        0.0004
     28 C         141.4070  133.7431  154.9982 C.ar    1  UNL1        0.0399
     29 C         142.5578  133.0479  155.6634 C.ar    1  UNL1        0.1764
     30 C         143.4694  133.8126  156.5768 C.ar    1  UNL1        0.1762
     31 C         143.2302  135.2725  156.8250 C.ar    1  UNL1        0.0373
     32 O         144.5143  132.8656  157.0880 O.3     1  UNL1       -0.4346
     33 C         144.2484  131.5156  156.4905 C.3     1  UNL1        0.4294
     34 O         143.0392  131.6283  155.6101 O.3     1  UNL1       -0.4346
@<TRIPOS>BOND
     1    17    18    1
     2    18     5    1
     3     5     6   ar
     4     6     7   ar
     5     7     8   ar
     6     8     9   ar
     7     9     1    1
     8     1     2    2
     9     1     3   am
    10     3    19    1
    11    19    20    1
    12    20    21    1
    13    21    22    1
    14    22    25    1
    15    25    26    1
    16    26    27   ar
    17    27    28   ar
    18    28    29   ar
    19    29    30   ar
    20    30    31   ar
    21    30    32    1
    22    32    33    1
    23    33    34    1
    24    22    23    1
    25    23    24    1
    26     9    10   ar
    27    10    11   ar
    28    11    12    2
    29    11    13   ar
    30    13    14   ar
    31    14    15   ar
    32    15    16    1
    33    15     5   ar
    34    13     7   ar
    35    24    19    1
    36    31    26   ar
    37    34    29    1
    38     3     4    1
@<TRIPOS>MOLECULE
*****
 34 38 0 0 0
SMALL
GASTEIGER

@<TRIPOS>ATOM
      1 C         142.9015  138.4118  159.7875 C.2     1  UNL1        0.2806
      2 O         144.0987  139.3147  159.8281 O.2     1  UNL1       -0.2668
      3 N         142.0133  138.2895  160.9900 N.am    1  UNL1       -0.2999
      4 H         141.2275  137.6970  160.9634 H       1  UNL1        0.1498
      5 C         143.3496  133.4529  155.5498 C.ar    1  UNL1        0.1690
      6 C         143.6586  134.2334  156.7929 C.ar    1  UNL1        0.0768
      7 C         142.9711  135.5421  157.0471 C.ar    1  UNL1        0.1517
      8 O         143.2801  136.3226  158.2902 O.2     1  UNL1       -0.4486
      9 C         142.5926  137.6313  158.5444 C.ar    1  UNL1        0.2014
     10 C         141.5961  138.1595  157.5554 C.ar    1  UNL1        0.0843
     11 C         141.2871  137.3790  156.3123 C.ar    1  UNL1        0.2019
     12 O         140.2907  137.9072  155.3233 O.2     1  UNL1       -0.2864
     13 C         141.9746  136.0703  156.0581 C.ar    1  UNL1        0.0760
     14 C         141.6657  135.2898  154.8150 C.ar    1  UNL1        0.0390
     15 C         142.3532  133.9811  154.5609 C.ar    1  UNL1        0.1741
     16 F         142.0442  133.2005  153.3177 F       1  UNL1       -0.2010
     17 C         145.0324  131.6152  156.2854 C.3     1  UNL1        0.2526
     18 O         144.0371  132.1441  155.2957 O.3     1  UNL1       -0.4691
     19 C         142.3223  139.0701  162.2331 C.3     1  UNL1        0.0747
     20 C         143.2658  138.5095  163.2556 C.3     1  UNL1        0.0369
     21 C         143.5748  139.2900  164.4987 C.3     1  UNL1        0.0741
     22 N         142.9403  140.6311  164.7193 N.3     1  UNL1       -0.2688
     23 C         141.9968  141.1917  163.6968 C.3     1  UNL1        0.0741
     24 C         141.6878  140.4112  162.4537 C.3     1  UNL1        0.0369
     25 C         143.2493  141.4117  165.9624 C.3     1  UNL1        0.0992
     26 C         142.2487  141.4720  167.0782 C.ar    1  UNL1       -0.0029
     27 C         142.2831  142.6092  168.0558 C.ar    1  UNL1        0.0004
     28 C         141.2824  142.6696  169.1716 C.ar    1  UNL1        0.0399
     29 C         140.2473  141.5927  169.3098 C.ar    1  UNL1        0.1764
     30 C         140.2129  140.4556  168.3323 C.ar    1  UNL1        0.1762
     31 C         141.2136  140.3952  167.2165 C.ar    1  UNL1        0.0373
     32 O         139.0845  139.5461  168.7188 O.3     1  UNL1       -0.4346
     33 C         138.4215  140.1211  169.9352 C.3     1  UNL1        0.4294
     34 O         139.1402  141.3861  170.3005 O.3     1  UNL1       -0.4346
@<TRIPOS>BOND
     1    17    18    1
     2    18     5    1
     3     5     6   ar
     4     6     7   ar
     5     7     8   ar
     6     8     9   ar
     7     9     1    1
     8     1     2    2
     9     1     3   am
    10     3    19    1
    11    19    20    1
    12    20    21    1
    13    21    22    1
    14    22    25    1
    15    25    26    1
    16    26    27   ar
    17    27    28   ar
    18    28    29   ar
    19    29    30   ar
    20    30    31   ar
    21    30    32    1
    22    32    33    1
    23    33    34    1
    24    22    23    1
    25    23    24    1
    26     9    10   ar
    27    10    11   ar
    28    11    12    2
    29    11    13   ar
    30    13    14   ar
    31    14    15   ar
    32    15    16    1
    33    15     5   ar
    34    13     7   ar
    35    24    19    1
    36    31    26   ar
    37    34    29    1
    38     3     4    1
@<TRIPOS>MOLECULE
*****
 34 38 0 0 0
SMALL
GASTEIGER

@<TRIPOS>ATOM
      1 C         140.1499  144.9057  161.0843 C.2     1  UNL1        0.2806
      2 O         139.5044  146.2218  160.7659 O.2     1  UNL1       -0.2668
      3 N         140.7648  144.0872  159.9879 N.am    1  UNL1       -0.2999
      4 H         141.1884  143.2234  160.1969 H       1  UNL1        0.1498
      5 C         142.0680  141.1566  166.0858 C.ar    1  UNL1        0.1690
      6 C         142.0373  141.6541  164.6711 C.ar    1  UNL1        0.0768
      7 C         141.1243  142.7824  164.2925 C.ar    1  UNL1        0.1517
      8 O         141.0936  143.2799  162.8776 O.2     1  UNL1       -0.4486
      9 C         140.1806  144.4082  162.4990 C.ar    1  UNL1        0.2014
     10 C         139.2983  145.0390  163.5352 C.ar    1  UNL1        0.0843
     11 C         139.3290  144.5415  164.9500 C.ar    1  UNL1        0.2019
     12 O         138.4467  145.1723  165.9861 O.2     1  UNL1       -0.2864
     13 C         140.2420  143.4132  165.3286 C.ar    1  UNL1        0.0760
     14 C         140.2727  142.9157  166.7433 C.ar    1  UNL1        0.0390
     15 C         141.1857  141.7874  167.1219 C.ar    1  UNL1        0.1741
     16 F         141.2164  141.2899  168.5367 F       1  UNL1       -0.2010
     17 C         142.7959  138.6741  165.8465 C.3     1  UNL1        0.2526
     18 O         142.9810  140.0282  166.4644 O.3     1  UNL1       -0.4691
     19 C         140.7340  144.5848  158.5731 C.3     1  UNL1        0.0747
     20 C         139.5871  144.2242  157.6761 C.3     1  UNL1        0.0369
     21 C         139.5564  144.7218  156.2614 C.3     1  UNL1        0.0741
     22 N         140.6725  145.5798  155.7437 N.3     1  UNL1       -0.2688
     23 C         141.8194  145.9403  156.6407 C.3     1  UNL1        0.0741
     24 C         141.8501  145.4428  158.0555 C.3     1  UNL1        0.0369
     25 C         140.6417  146.0774  154.3289 C.3     1  UNL1        0.0992
     26 C         140.3040  147.5111  154.0453 C.ar    1  UNL1       -0.0029
     27 C         140.7303  148.1404  152.7521 C.ar    1  UNL1        0.0004
     28 C         140.3925  149.5741  152.4685 C.ar    1  UNL1        0.0399
     29 C         139.6285  150.3784  153.4781 C.ar    1  UNL1        0.1764
     30 C         139.2022  149.7491  154.7712 C.ar    1  UNL1        0.1762
     31 C         139.5400  148.3155  155.0548 C.ar    1  UNL1        0.0373
     32 O         138.4655  150.7836  155.5694 O.3     1  UNL1       -0.4346
     33 C         138.4364  152.0522  154.7696 C.3     1  UNL1        0.4294
     34 O         139.1552  151.8018  153.4770 O.3     1  UNL1       -0.4346
@<TRIPOS>BOND
     1    17    18    1
     2    18     5    1
     3     5     6   ar
     4     6     7   ar
     5     7     8   ar
     6     8     9   ar
     7     9     1    1
     8     1     2    2
     9     1     3   am
    10     3    19    1
    11    19    20    1
    12    20    21    1
    13    21    22    1
    14    22    25    1
    15    25    26    1
    16    26    27   ar
    17    27    28   ar
    18    28    29   ar
    19    29    30   ar
    20    30    31   ar
    21    30    32    1
    22    32    33    1
    23    33    34    1
    24    22    23    1
    25    23    24    1
    26     9    10   ar
    27    10    11   ar
    28    11    12    2
    29    11    13   ar
    30    13    14   ar
    31    14    15   ar
    32    15    16    1
    33    15     5   ar
    34    13     7   ar
    35    24    19    1
    36    31    26   ar
    37    34    29    1
    38     3     4    1
@<TRIPOS>MOLECULE
*****
 34 38 0 0 0
SMALL
GASTEIGER

@<TRIPOS>ATOM
      1 C         140.7088  139.3769  161.7069 C.2     1  UNL1        0.2806
      2 O         140.5344  137.9020  161.9173 O.2     1  UNL1       -0.2668
      3 N         141.0383  139.9060  160.3425 N.am    1  UNL1       -0.2999
      4 H         141.1528  140.8740  160.2044 H       1  UNL1        0.1498
      5 C         140.9387  141.3188  167.9459 C.ar    1  UNL1        0.1690
      6 C         141.0939  140.3730  166.7921 C.ar    1  UNL1        0.0768
      7 C         140.7461  140.8207  165.4033 C.ar    1  UNL1        0.1517
      8 O         140.9013  139.8749  164.2494 O.2     1  UNL1       -0.4486
      9 C         140.5535  140.3226  162.8607 C.ar    1  UNL1        0.2014
     10 C         140.0505  141.7162  162.6259 C.ar    1  UNL1        0.0843
     11 C         139.8953  142.6619  163.7797 C.ar    1  UNL1        0.2019
     12 O         139.3923  144.0554  163.5449 O.2     1  UNL1       -0.2864
     13 C         140.2431  142.2142  165.1685 C.ar    1  UNL1        0.0760
     14 C         140.0879  143.1599  166.3223 C.ar    1  UNL1        0.0390
     15 C         140.4357  142.7122  167.7111 C.ar    1  UNL1        0.1741
     16 F         140.2805  143.6580  168.8650 F       1  UNL1       -0.2010
     17 C         140.2398  140.2380  170.2028 C.3     1  UNL1        0.2526
     18 O         141.2865  140.8710  169.3347 O.3     1  UNL1       -0.4691
     19 C         141.1935  138.9602  159.1886 C.3     1  UNL1        0.0747
     20 C         142.5462  138.4088  158.8475 C.3     1  UNL1        0.0369
     21 C         142.7014  137.4631  157.6937 C.3     1  UNL1        0.0741
     22 N         141.5040  137.0686  156.8810 N.3     1  UNL1       -0.2688
     23 C         140.1514  137.6200  157.2221 C.3     1  UNL1        0.0741
     24 C         139.9961  138.5658  158.3759 C.3     1  UNL1        0.0369
     25 C         141.6592  136.1228  155.7271 C.3     1  UNL1        0.0992
     26 C         142.0859  134.7056  155.9711 C.ar    1  UNL1       -0.0029
     27 C         141.3651  133.5781  155.2935 C.ar    1  UNL1        0.0004
     28 C         141.7918  132.1609  155.5376 C.ar    1  UNL1        0.0399
     29 C         142.9393  131.8713  156.4593 C.ar    1  UNL1        0.1764
     30 C         143.6600  132.9988  157.1368 C.ar    1  UNL1        0.1762
     31 C         143.2333  134.4160  156.8928 C.ar    1  UNL1        0.0373
     32 O         144.7471  132.4100  157.9863 O.3     1  UNL1       -0.4346
     33 C         144.6982  130.9187  157.8337 C.3     1  UNL1        0.4294
     34 O         143.5808  130.5857  156.8899 O.3     1  UNL1       -0.4346
@<TRIPOS>BOND
     1    17    18    1
     2    18     5    1
     3     5     6   ar
     4     6     7   ar
     5     7     8   ar
     6     8     9   ar
     7     9     1    1
     8     1     2    2
     9     1     3   am
    10     3    19    1
    11    19    20    1
    12    20    21    1
    13    21    22    1
    14    22    25    1
    15    25    26    1
    16    26    27   ar
    17    27    28   ar
    18    28    29   ar
    19    29    30   ar
    20    30    31   ar
    21    30    32    1
    22    32    33    1
    23    33    34    1
    24    22    23    1
    25    23    24    1
    26     9    10   ar
    27    10    11   ar
    28    11    12    2
    29    11    13   ar
    30    13    14   ar
    31    14    15   ar
    32    15    16    1
    33    15     5   ar
    34    13     7   ar
    35    24    19    1
    36    31    26   ar
    37    34    29    1
    38     3     4    1
@<TRIPOS>MOLECULE
*****
 34 38 0 0 0
SMALL
GASTEIGER

@<TRIPOS>ATOM
      1 C         142.6018  137.9148  158.8635 C.2     1  UNL1        0.2806
      2 O         142.4997  139.3722  158.5234 O.2     1  UNL1       -0.2668
      3 N         142.8052  137.4894  160.2875 N.am    1  UNL1       -0.2999
      4 H         142.8722  136.5329  160.5107 H       1  UNL1        0.1498
      5 C         143.9946  132.3476  155.7303 C.ar    1  UNL1        0.1690
      6 C         144.0959  133.3795  156.8142 C.ar    1  UNL1        0.0768
      7 C         143.2476  134.6152  156.7549 C.ar    1  UNL1        0.1517
      8 O         143.3489  135.6472  157.8389 O.2     1  UNL1       -0.4486
      9 C         142.5006  136.8828  157.7796 C.ar    1  UNL1        0.2014
     10 C         141.5510  137.0865  156.6364 C.ar    1  UNL1        0.0843
     11 C         141.4497  136.0546  155.5526 C.ar    1  UNL1        0.2019
     12 O         140.5001  136.2583  154.4094 O.2     1  UNL1       -0.2864
     13 C         142.2980  134.8189  155.6118 C.ar    1  UNL1        0.0760
     14 C         142.1968  133.7870  154.5280 C.ar    1  UNL1        0.0390
     15 C         143.0451  132.5513  154.5872 C.ar    1  UNL1        0.1741
     16 F         142.9438  131.5193  153.5033 F       1  UNL1       -0.2010
     17 C         144.5186  130.0260  156.7721 C.3     1  UNL1        0.2526
     18 O         144.8430  131.1119  155.7896 O.3     1  UNL1       -0.4691
     19 C         142.9064  138.5214  161.3713 C.3     1  UNL1        0.0747
     20 C         144.2340  138.8169  162.0039 C.3     1  UNL1        0.0369
     21 C         144.3353  139.8489  163.0877 C.3     1  UNL1        0.0741
     22 N         143.1090  140.5853  163.5390 N.3     1  UNL1       -0.2688
     23 C         141.7814  140.2898  162.9065 C.3     1  UNL1        0.0741
     24 C         141.6801  139.2578  161.8227 C.3     1  UNL1        0.0369
     25 C         143.2102  141.6174  164.6229 C.3     1  UNL1        0.0992
     26 C         142.9706  141.2300  166.0521 C.ar    1  UNL1       -0.0029
     27 C         142.8310  139.7834  166.4237 C.ar    1  UNL1        0.0004
     28 C         142.5913  139.3961  167.8529 C.ar    1  UNL1        0.0399
     29 C         142.4912  140.4553  168.9104 C.ar    1  UNL1        0.1764
     30 C         142.6308  141.9017  168.5387 C.ar    1  UNL1        0.1762
     31 C         142.8705  142.2891  167.1095 C.ar    1  UNL1        0.0373
     32 O         142.4874  142.7175  169.7892 O.3     1  UNL1       -0.4346
     33 C         142.2592  141.7753  170.9337 C.3     1  UNL1        0.4294
     34 O         142.2616  140.3771  170.3906 O.3     1  UNL1       -0.4346
@<TRIPOS>BOND
     1    17    18    1
     2    18     5    1
     3     5     6   ar
     4     6     7   ar
     5     7     8   ar
     6     8     9   ar
     7     9     1    1
     8     1     2    2
     9     1     3   am
    10     3    19    1
    11    19    20    1
    12    20    21    1
    13    21    22    1
    14    22    25    1
    15    25    26    1
    16    26    27   ar
    17    27    28   ar
    18    28    29   ar
    19    29    30   ar
    20    30    31   ar
    21    30    32    1
    22    32    33    1
    23    33    34    1
    24    22    23    1
    25    23    24    1
    26     9    10   ar
    27    10    11   ar
    28    11    12    2
    29    11    13   ar
    30    13    14   ar
    31    14    15   ar
    32    15    16    1
    33    15     5   ar
    34    13     7   ar
    35    24    19    1
    36    31    26   ar
    37    34    29    1
    38     3     4    1
@<TRIPOS>MOLECULE
*****
 34 38 0 0 0
SMALL
GASTEIGER

@<TRIPOS>ATOM
      1 C         140.4406  144.1949  159.4984 C.2     1  UNL1        0.2806
      2 O         139.1522  143.8230  160.1704 O.2     1  UNL1       -0.2668
      3 N         141.7488  143.7719  160.0984 N.am    1  UNL1       -0.2999
      4 H         142.5944  144.0160  159.6573 H       1  UNL1        0.1498
      5 C         138.8088  149.1294  155.5314 C.ar    1  UNL1        0.1690
      6 C         138.8284  148.3346  156.8033 C.ar    1  UNL1        0.0768
      7 C         139.6149  147.0596  156.8789 C.ar    1  UNL1        0.1517
      8 O         139.6345  146.2648  158.1509 O.2     1  UNL1       -0.4486
      9 C         140.4210  144.9897  158.2265 C.ar    1  UNL1        0.2014
     10 C         141.1878  144.5095  157.0300 C.ar    1  UNL1        0.0843
     11 C         141.1682  145.3043  155.7581 C.ar    1  UNL1        0.2019
     12 O         141.9350  144.8240  154.5617 O.2     1  UNL1       -0.2864
     13 C         140.3817  146.5793  155.6825 C.ar    1  UNL1        0.0760
     14 C         140.3620  147.3741  154.4106 C.ar    1  UNL1        0.0390
     15 C         139.5756  148.6492  154.3350 C.ar    1  UNL1        0.1741
     16 F         139.5560  149.4440  153.0630 F       1  UNL1       -0.2010
     17 C         138.7348  151.7238  155.4136 C.3     1  UNL1        0.2526
     18 O         138.0223  150.4045  155.4558 O.3     1  UNL1       -0.4691
     19 C         141.7684  142.9771  161.3704 C.3     1  UNL1        0.0747
     20 C         141.6045  143.6702  162.6905 C.3     1  UNL1        0.0369
     21 C         141.6241  142.8755  163.9624 C.3     1  UNL1        0.0741
     22 N         141.8076  141.3876  163.9143 N.3     1  UNL1       -0.2688
     23 C         141.9714  140.6944  162.5942 C.3     1  UNL1        0.0741
     24 C         141.9518  141.4892  161.3222 C.3     1  UNL1        0.0369
     25 C         141.8272  140.5927  165.1863 C.3     1  UNL1        0.0992
     26 C         141.7596  141.2945  166.5103 C.ar    1  UNL1       -0.0029
     27 C         140.4302  141.6849  167.0851 C.ar    1  UNL1        0.0004
     28 C         140.3626  142.3867  168.4091 C.ar    1  UNL1        0.0399
     29 C         141.6244  142.6980  169.1583 C.ar    1  UNL1        0.1764
     30 C         142.9537  142.3075  168.5834 C.ar    1  UNL1        0.1762
     31 C         143.0213  141.6057  167.2594 C.ar    1  UNL1        0.0373
     32 O         144.0201  142.7431  169.5441 O.3     1  UNL1       -0.4346
     33 C         143.3499  143.4028  170.7127 C.3     1  UNL1        0.4294
     34 O         141.8692  143.3749  170.4742 O.3     1  UNL1       -0.4346
@<TRIPOS>BOND
     1    17    18    1
     2    18     5    1
     3     5     6   ar
     4     6     7   ar
     5     7     8   ar
     6     8     9   ar
     7     9     1    1
     8     1     2    2
     9     1     3   am
    10     3    19    1
    11    19    20    1
    12    20    21    1
    13    21    22    1
    14    22    25    1
    15    25    26    1
    16    26    27   ar
    17    27    28   ar
    18    28    29   ar
    19    29    30   ar
    20    30    31   ar
    21    30    32    1
    22    32    33    1
    23    33    34    1
    24    22    23    1
    25    23    24    1
    26     9    10   ar
    27    10    11   ar
    28    11    12    2
    29    11    13   ar
    30    13    14   ar
    31    14    15   ar
    32    15    16    1
    33    15     5   ar
    34    13     7   ar
    35    24    19    1
    36    31    26   ar
    37    34    29    1
    38     3     4    1
@<TRIPOS>MOLECULE
*****
 34 38 0 0 0
SMALL
GASTEIGER

@<TRIPOS>ATOM
      1 C         140.4951  139.3119  160.4826 C.2     1  UNL1        0.2806
      2 O         140.6184  137.8949  160.9590 O.2     1  UNL1       -0.2668
      3 N         140.7685  139.6467  159.0462 N.am    1  UNL1       -0.2999
      4 H         140.6876  140.5767  158.7335 H       1  UNL1        0.1498
      5 C         140.4333  142.5852  166.1423 C.ar    1  UNL1        0.1690
      6 C         140.8299  141.5030  165.1823 C.ar    1  UNL1        0.0768
      7 C         140.2659  141.4897  163.7924 C.ar    1  UNL1        0.1517
      8 O         140.6625  140.4074  162.8324 O.2     1  UNL1       -0.4486
      9 C         140.0986  140.3941  161.4426 C.ar    1  UNL1        0.2014
     10 C         139.1380  141.4630  161.0127 C.ar    1  UNL1        0.0843
     11 C         138.7414  142.5452  161.9726 C.ar    1  UNL1        0.2019
     12 O         137.7808  143.6140  161.5427 O.2     1  UNL1       -0.2864
     13 C         139.3054  142.5585  163.3625 C.ar    1  UNL1        0.0760
     14 C         138.9088  143.6407  164.3225 C.ar    1  UNL1        0.0390
     15 C         139.4727  143.6541  165.7123 C.ar    1  UNL1        0.1741
     16 F         139.0761  144.7363  166.6723 F       1  UNL1       -0.2010
     17 C         141.0762  141.3257  168.3217 C.3     1  UNL1        0.2526
     18 O         140.9973  142.5986  167.5321 O.3     1  UNL1       -0.4691
     19 C         141.1651  138.5644  158.0862 C.3     1  UNL1        0.0747
     20 C         142.5972  138.1270  157.9992 C.3     1  UNL1        0.0369
     21 C         142.9938  137.0448  157.0393 C.3     1  UNL1        0.0741
     22 N         141.9583  136.4000  156.1664 N.3     1  UNL1       -0.2688
     23 C         140.5262  136.8375  156.2535 C.3     1  UNL1        0.0741
     24 C         140.1295  137.9197  157.2134 C.3     1  UNL1        0.0369
     25 C         142.3549  135.3177  155.2064 C.3     1  UNL1        0.0992
     26 C         142.5786  133.9200  155.7028 C.ar    1  UNL1       -0.0029
     27 C         141.6713  132.8117  155.2571 C.ar    1  UNL1        0.0004
     28 C         141.8951  131.4140  155.7534 C.ar    1  UNL1        0.0399
     29 C         143.0261  131.1246  156.6954 C.ar    1  UNL1        0.1764
     30 C         143.9333  132.2329  157.1409 C.ar    1  UNL1        0.1762
     31 C         143.7096  133.6306  156.6446 C.ar    1  UNL1        0.0373
     32 O         144.9575  131.6490  158.0683 O.3     1  UNL1       -0.4346
     33 C         144.6832  130.1798  158.1959 C.3     1  UNL1        0.4294
     34 O         143.4895  129.8557  157.3473 O.3     1  UNL1       -0.4346
@<TRIPOS>BOND
     1    17    18    1
     2    18     5    1
     3     5     6   ar
     4     6     7   ar
     5     7     8   ar
     6     8     9   ar
     7     9     1    1
     8     1     2    2
     9     1     3   am
    10     3    19    1
    11    19    20    1
    12    20    21    1
    13    21    22    1
    14    22    25    1
    15    25    26    1
    16    26    27   ar
    17    27    28   ar
    18    28    29   ar
    19    29    30   ar
    20    30    31   ar
    21    30    32    1
    22    32    33    1
    23    33    34    1
    24    22    23    1
    25    23    24    1
    26     9    10   ar
    27    10    11   ar
    28    11    12    2
    29    11    13   ar
    30    13    14   ar
    31    14    15   ar
    32    15    16    1
    33    15     5   ar
    34    13     7   ar
    35    24    19    1
    36    31    26   ar
    37    34    29    1
    38     3     4    1
@<TRIPOS>MOLECULE
*****
 34 38 0 0 0
SMALL
GASTEIGER

@<TRIPOS>ATOM
      1 C         140.8531  139.8105  162.9017 C.2     1  UNL1        0.2806
      2 O         141.5088  140.9298  162.1483 O.2     1  UNL1       -0.2668
      3 N         140.5093  138.5321  162.1965 N.am    1  UNL1       -0.2999
      4 H         140.0789  137.7975  162.6909 H       1  UNL1        0.1498
      5 C         141.7033  141.9537  169.0200 C.ar    1  UNL1        0.1690
      6 C         142.0152  141.7945  167.5615 C.ar    1  UNL1        0.0768
      7 C         141.1222  140.9618  166.6902 C.ar    1  UNL1        0.1517
      8 O         141.4342  140.8025  165.2316 O.2     1  UNL1       -0.4486
      9 C         140.5412  139.9698  164.3602 C.ar    1  UNL1        0.2014
     10 C         139.3363  139.2964  164.9475 C.ar    1  UNL1        0.0843
     11 C         139.0244  139.4557  166.4060 C.ar    1  UNL1        0.2019
     12 O         137.8195  138.7823  166.9932 O.2     1  UNL1       -0.2864
     13 C         139.9174  140.2884  167.2773 C.ar    1  UNL1        0.0760
     14 C         139.6055  140.4477  168.7358 C.ar    1  UNL1        0.0390
     15 C         140.4985  141.2803  169.6072 C.ar    1  UNL1        0.1741
     16 F         140.1865  141.4396  171.0658 F       1  UNL1       -0.2010
     17 C         144.0694  142.5081  169.9387 C.3     1  UNL1        0.2526
     18 O         142.5963  142.7864  169.8914 O.3     1  UNL1       -0.4691
     19 C         140.8212  138.3728  160.7379 C.3     1  UNL1        0.0747
     20 C         139.7172  138.4316  159.7241 C.3     1  UNL1        0.0369
     21 C         140.0291  138.2724  158.2656 C.3     1  UNL1        0.0741
     22 N         141.4449  138.0544  157.8208 N.3     1  UNL1       -0.2688
     23 C         142.5489  137.9956  158.8346 C.3     1  UNL1        0.0741
     24 C         142.2370  138.1548  160.2931 C.3     1  UNL1        0.0369
     25 C         141.7568  137.8951  156.3622 C.3     1  UNL1        0.0992
     26 C         142.1262  136.5474  155.8171 C.ar    1  UNL1       -0.0029
     27 C         143.3886  135.8754  156.2700 C.ar    1  UNL1        0.0004
     28 C         143.7579  134.5277  155.7248 C.ar    1  UNL1        0.0399
     29 C         142.8650  133.8519  154.7268 C.ar    1  UNL1        0.1764
     30 C         141.6027  134.5239  154.2739 C.ar    1  UNL1        0.1762
     31 C         141.2333  135.8716  154.8191 C.ar    1  UNL1        0.0373
     32 O         140.9252  133.6204  153.2867 O.3     1  UNL1       -0.4346
     33 C         141.7687  132.3901  153.1294 C.3     1  UNL1        0.4294
     34 O         142.9676  132.5332  154.0194 O.3     1  UNL1       -0.4346
@<TRIPOS>BOND
     1    17    18    1
     2    18     5    1
     3     5     6   ar
     4     6     7   ar
     5     7     8   ar
     6     8     9   ar
     7     9     1    1
     8     1     2    2
     9     1     3   am
    10     3    19    1
    11    19    20    1
    12    20    21    1
    13    21    22    1
    14    22    25    1
    15    25    26    1
    16    26    27   ar
    17    27    28   ar
    18    28    29   ar
    19    29    30   ar
    20    30    31   ar
    21    30    32    1
    22    32    33    1
    23    33    34    1
    24    22    23    1
    25    23    24    1
    26     9    10   ar
    27    10    11   ar
    28    11    12    2
    29    11    13   ar
    30    13    14   ar
    31    14    15   ar
    32    15    16    1
    33    15     5   ar
    34    13     7   ar
    35    24    19    1
    36    31    26   ar
    37    34    29    1
    38     3     4    1
@<TRIPOS>MOLECULE
*****
 34 38 0 0 0
SMALL
GASTEIGER

@<TRIPOS>ATOM
      1 C         138.8371  142.0133  160.1842 C.2     1  UNL1        0.2806
      2 O         140.0419  142.4326  160.9734 O.2     1  UNL1       -0.2668
      3 N         137.8254  141.0890  160.7942 N.am    1  UNL1       -0.2999
      4 H         137.0347  140.8137  160.2762 H       1  UNL1        0.1498
      5 C         136.0851  142.3824  154.2647 C.ar    1  UNL1        0.1690
      6 C         136.2781  141.8775  155.6639 C.ar    1  UNL1        0.0768
      7 C         137.3647  142.4503  156.5248 C.ar    1  UNL1        0.1517
      8 O         137.5576  141.9453  157.9241 O.2     1  UNL1       -0.4486
      9 C         138.6442  142.5182  158.7850 C.ar    1  UNL1        0.2014
     10 C         139.5378  143.5961  158.2467 C.ar    1  UNL1        0.0843
     11 C         139.3449  144.1010  156.8475 C.ar    1  UNL1        0.2019
     12 O         140.2385  145.1788  156.3092 O.2     1  UNL1       -0.2864
     13 C         138.2583  143.5281  155.9866 C.ar    1  UNL1        0.0760
     14 C         138.0653  144.0331  154.5874 C.ar    1  UNL1        0.0390
     15 C         136.9787  143.4602  153.7265 C.ar    1  UNL1        0.1741
     16 F         136.7858  143.9652  152.3272 F       1  UNL1       -0.2010
     17 C         135.3495  140.9436  152.2304 C.3     1  UNL1        0.2526
     18 O         134.9986  141.8096  153.4038 O.3     1  UNL1       -0.4691
     19 C         138.0184  140.5841  162.1935 C.3     1  UNL1        0.0747
     20 C         137.7643  141.4920  163.3601 C.3     1  UNL1        0.0369
     21 C         137.9573  140.9871  164.7593 C.3     1  UNL1        0.0741
     22 N         138.4044  139.5743  164.9919 N.3     1  UNL1       -0.2688
     23 C         138.6586  138.6664  163.8252 C.3     1  UNL1        0.0741
     24 C         138.4656  139.1713  162.4260 C.3     1  UNL1        0.0369
     25 C         138.5975  139.0694  166.3911 C.3     1  UNL1        0.0992
     26 C         139.6301  139.6976  167.2794 C.ar    1  UNL1       -0.0029
     27 C         141.0205  139.9286  166.7661 C.ar    1  UNL1        0.0004
     28 C         142.0531  140.5569  167.6544 C.ar    1  UNL1        0.0399
     29 C         141.6953  140.9542  169.0559 C.ar    1  UNL1        0.1764
     30 C         140.3049  140.7232  169.5691 C.ar    1  UNL1        0.1762
     31 C         139.2723  140.0949  168.6809 C.ar    1  UNL1        0.0373
     32 O         140.2458  141.2149  170.9850 O.3     1  UNL1       -0.4346
     33 C         141.5996  141.7498  171.3468 C.3     1  UNL1        0.4294
     34 O         142.4955  141.5886  170.1546 O.3     1  UNL1       -0.4346
@<TRIPOS>BOND
     1    17    18    1
     2    18     5    1
     3     5     6   ar
     4     6     7   ar
     5     7     8   ar
     6     8     9   ar
     7     9     1    1
     8     1     2    2
     9     1     3   am
    10     3    19    1
    11    19    20    1
    12    20    21    1
    13    21    22    1
    14    22    25    1
    15    25    26    1
    16    26    27   ar
    17    27    28   ar
    18    28    29   ar
    19    29    30   ar
    20    30    31   ar
    21    30    32    1
    22    32    33    1
    23    33    34    1
    24    22    23    1
    25    23    24    1
    26     9    10   ar
    27    10    11   ar
    28    11    12    2
    29    11    13   ar
    30    13    14   ar
    31    14    15   ar
    32    15    16    1
    33    15     5   ar
    34    13     7   ar
    35    24    19    1
    36    31    26   ar
    37    34    29    1
    38     3     4    1
