@<TRIPOS>MOLECULE
*****
 26 28 0 0 0
SMALL
GASTEIGER

@<TRIPOS>ATOM
      1 C         142.6551  140.5629  166.2679 C.ar    1  UNL1        0.0734
      2 C         143.3491  139.2493  166.0612 C.ar    1  UNL1        0.0192
      3 C         143.6084  138.7487  164.6712 C.ar    1  UNL1        0.0398
      4 C         143.1737  139.5616  163.4879 C.ar    1  UNL1        0.1581
      5 C         142.4797  140.8752  163.6946 C.ar    1  UNL1        0.1353
      6 N         142.2204  141.3759  165.0846 N.ar    1  UNL1       -0.2436
      7 C         141.4996  141.2827  169.9028 C.3     1  UNL1        0.1315
      8 C         142.4940  142.3856  169.6910 C.3     1  UNL1        0.0269
      9 C         143.0478  142.2502  168.3036 C.3     1  UNL1        0.0237
     10 C         142.3958  141.0636  167.6579 C.3     1  UNL1        0.0952
     11 N         141.4389  140.4657  168.6463 N.3     1  UNL1       -0.2877
     12 H         141.7058  139.5018  168.8469 H       1  UNL1        0.1239
     13 N         140.0166  139.7230  171.3582 N.am    1  UNL1       -0.3277
     14 C         140.7053  141.0395  171.1518 C.2     1  UNL1        0.2336
     15 O         140.5998  142.1127  172.1944 O.2     1  UNL1       -0.2739
     16 H         139.4953  139.5634  172.1780 H       1  UNL1        0.1450
     17 H         140.0858  139.0186  170.6739 H       1  UNL1        0.1450
     18 O         143.4330  139.0609  162.0979 O.3     1  UNL1       -0.4690
     19 C         142.5458  138.0084  161.5021 C.3     1  UNL1        0.2343
     20 C         141.0572  138.1046  161.6606 C.ar    1  UNL1        0.0486
     21 C         140.2386  138.8267  160.6319 C.ar    1  UNL1        0.0016
     22 C         138.7501  138.9228  160.7905 C.ar    1  UNL1       -0.0001
     23 C         138.0803  138.2968  161.9777 C.ar    1  UNL1        0.0023
     24 C         138.8990  137.5748  163.0064 C.ar    1  UNL1        0.0294
     25 C         140.3874  137.4786  162.8479 C.ar    1  UNL1        0.1396
     26 F         141.2062  136.7565  163.8766 F       1  UNL1       -0.2044
@<TRIPOS>BOND
     1    13    14   am
     2    14    15    2
     3     7    14    1
     4     7     8    1
     5     8     9    1
     6     9    10    1
     7    10     1    1
     8     1     2   ar
     9     2     3   ar
    10     3     4   ar
    11     4    18    1
    12    18    19    1
    13    19    20    1
    14    20    21   ar
    15    21    22   ar
    16    22    23   ar
    17    23    24   ar
    18    24    25   ar
    19    25    26    1
    20     4     5   ar
    21     5     6   ar
    22    10    11    1
    23    11     7    1
    24     6     1   ar
    25    25    20   ar
    26    13    16    1
    27    13    17    1
    28    11    12    1
@<TRIPOS>MOLECULE
*****
 26 28 0 0 0
SMALL
GASTEIGER

@<TRIPOS>ATOM
      1 C         141.1416  139.7035  166.4186 C.ar    1  UNL1        0.0734
      2 C         142.4324  138.9440  166.5023 C.ar    1  UNL1        0.0192
      3 C         143.0569  138.3872  165.2574 C.ar    1  UNL1        0.0398
      4 C         142.3907  138.5898  163.9288 C.ar    1  UNL1        0.1581
      5 C         141.0999  139.3493  163.8452 C.ar    1  UNL1        0.1353
      6 N         140.4753  139.9061  165.0901 N.ar    1  UNL1       -0.2436
      7 C         140.0931  141.6393  169.6153 C.3     1  UNL1        0.1315
      8 C         139.0185  140.5952  169.5433 C.3     1  UNL1        0.0269
      9 C         139.2805  139.7430  168.3370 C.3     1  UNL1        0.0237
     10 C         140.5170  140.2604  167.6636 C.3     1  UNL1        0.0952
     11 N         141.0192  141.4324  168.4536 N.3     1  UNL1       -0.2877
     12 H         141.0299  142.2665  167.8667 H       1  UNL1        0.1239
     13 N         140.0983  144.1496  170.2851 N.am    1  UNL1       -0.3277
     14 C         140.2194  142.7035  170.6649 C.2     1  UNL1        0.2336
     15 O         140.4667  142.3217  172.0942 O.2     1  UNL1       -0.2739
     16 H         140.1812  144.8480  170.9739 H       1  UNL1        0.1450
     17 H         139.9360  144.4002  169.3470 H       1  UNL1        0.1450
     18 O         143.0153  138.0330  162.6839 O.3     1  UNL1       -0.4690
     19 C         144.0239  138.8425  161.9241 C.3     1  UNL1        0.2343
     20 C         144.1834  140.3056  162.2140 C.ar    1  UNL1        0.0486
     21 C         143.4972  141.3207  161.3488 C.ar    1  UNL1        0.0016
     22 C         143.6567  142.7838  161.6387 C.ar    1  UNL1       -0.0001
     23 C         144.5024  143.2316  162.7939 C.ar    1  UNL1        0.0023
     24 C         145.1885  142.2165  163.6591 C.ar    1  UNL1        0.0294
     25 C         145.0290  140.7535  163.3691 C.ar    1  UNL1        0.1396
     26 F         145.7152  139.7382  164.2344 F       1  UNL1       -0.2044
@<TRIPOS>BOND
     1    13    14   am
     2    14    15    2
     3     7    14    1
     4     7     8    1
     5     8     9    1
     6     9    10    1
     7    10     1    1
     8     1     2   ar
     9     2     3   ar
    10     3     4   ar
    11     4    18    1
    12    18    19    1
    13    19    20    1
    14    20    21   ar
    15    21    22   ar
    16    22    23   ar
    17    23    24   ar
    18    24    25   ar
    19    25    26    1
    20     4     5   ar
    21     5     6   ar
    22    10    11    1
    23    11     7    1
    24     6     1   ar
    25    25    20   ar
    26    13    16    1
    27    13    17    1
    28    11    12    1
@<TRIPOS>MOLECULE
*****
 26 28 0 0 0
SMALL
GASTEIGER

@<TRIPOS>ATOM
      1 C         139.5904  140.7188  166.2069 C.ar    1  UNL1        0.0734
      2 C         139.2621  139.2553  166.1955 C.ar    1  UNL1        0.0192
      3 C         138.7547  138.6102  164.9400 C.ar    1  UNL1        0.0398
      4 C         138.5755  139.4288  163.6958 C.ar    1  UNL1        0.1581
      5 C         138.9038  140.8924  163.7073 C.ar    1  UNL1        0.1353
      6 N         139.4112  141.5374  164.9628 N.ar    1  UNL1       -0.2436
      7 C         140.8535  141.6941  169.7451 C.3     1  UNL1        0.1315
      8 C         140.9038  143.0192  169.0440 C.3     1  UNL1        0.0269
      9 C         140.4368  142.8151  167.6333 C.3     1  UNL1        0.0237
     10 C         140.0978  141.3639  167.4625 C.3     1  UNL1        0.0952
     11 N         140.3554  140.6711  168.7677 N.3     1  UNL1       -0.2877
     12 H         141.0583  139.9430  168.6403 H       1  UNL1        0.1239
     13 N         142.3469  140.4828  171.4924 N.am    1  UNL1       -0.3277
     14 C         141.2345  141.4371  171.1730 C.2     1  UNL1        0.2336
     15 O         140.5032  142.1343  172.2816 O.2     1  UNL1       -0.2739
     16 H         142.5969  140.3142  172.4295 H       1  UNL1        0.1450
     17 H         142.8269  140.0252  170.7648 H       1  UNL1        0.1450
     18 O         138.0681  138.7837  162.4403 O.3     1  UNL1       -0.4690
     19 C         138.9920  137.9578  161.5952 C.3     1  UNL1        0.2343
     20 C         140.4385  138.3363  161.4754 C.ar    1  UNL1        0.0486
     21 C         140.8642  139.3629  160.4681 C.ar    1  UNL1        0.0016
     22 C         142.3107  139.7414  160.3483 C.ar    1  UNL1       -0.0001
     23 C         143.3315  139.0933  161.2360 C.ar    1  UNL1        0.0023
     24 C         142.9058  138.0667  162.2434 C.ar    1  UNL1        0.0294
     25 C         141.4593  137.6882  162.3631 C.ar    1  UNL1        0.1396
     26 F         141.0336  136.6616  163.3705 F       1  UNL1       -0.2044
@<TRIPOS>BOND
     1    13    14   am
     2    14    15    2
     3     7    14    1
     4     7     8    1
     5     8     9    1
     6     9    10    1
     7    10     1    1
     8     1     2   ar
     9     2     3   ar
    10     3     4   ar
    11     4    18    1
    12    18    19    1
    13    19    20    1
    14    20    21   ar
    15    21    22   ar
    16    22    23   ar
    17    23    24   ar
    18    24    25   ar
    19    25    26    1
    20     4     5   ar
    21     5     6   ar
    22    10    11    1
    23    11     7    1
    24     6     1   ar
    25    25    20   ar
    26    13    16    1
    27    13    17    1
    28    11    12    1
@<TRIPOS>MOLECULE
*****
 26 28 0 0 0
SMALL
GASTEIGER

@<TRIPOS>ATOM
      1 C         142.3241  141.0747  166.2052 C.ar    1  UNL1        0.0734
      2 C         143.0490  142.3784  166.0478 C.ar    1  UNL1        0.0192
      3 C         143.2582  142.9599  164.6811 C.ar    1  UNL1        0.0398
      4 C         142.7424  142.2378  163.4717 C.ar    1  UNL1        0.1581
      5 C         142.0175  140.9341  163.6291 C.ar    1  UNL1        0.1353
      6 N         141.8083  140.3526  164.9958 N.ar    1  UNL1       -0.2436
      7 C         141.2741  140.1204  169.8180 C.3     1  UNL1        0.1315
      8 C         142.3118  139.0756  169.5322 C.3     1  UNL1        0.0269
      9 C         142.8314  139.3059  168.1441 C.3     1  UNL1        0.0237
     10 C         142.1148  140.4931  167.5719 C.3     1  UNL1        0.0952
     11 N         141.1524  140.9964  168.6065 N.3     1  UNL1       -0.2877
     12 H         140.2002  140.9543  168.2431 H       1  UNL1        0.1239
     13 N         139.6502  139.1274  171.5863 N.am    1  UNL1       -0.3277
     14 C         140.4949  140.2640  171.0917 C.2     1  UNL1        0.2336
     15 O         140.5604  141.5441  171.8708 O.2     1  UNL1       -0.2739
     16 H         139.1388  139.2216  172.4223 H       1  UNL1        0.1450
     17 H         139.6072  138.2872  171.0750 H       1  UNL1        0.1450
     18 O         142.9516  142.8194  162.1049 O.3     1  UNL1       -0.4690
     19 C         141.9595  143.7952  161.5452 C.3     1  UNL1        0.2343
     20 C         140.5882  143.8977  162.1446 C.ar    1  UNL1        0.0486
     21 C         139.4613  143.0827  161.5828 C.ar    1  UNL1        0.0016
     22 C         138.0901  143.1852  162.1822 C.ar    1  UNL1       -0.0001
     23 C         137.8459  144.1028  163.3434 C.ar    1  UNL1        0.0023
     24 C         138.9728  144.9178  163.9052 C.ar    1  UNL1        0.0294
     25 C         140.3440  144.8153  163.3058 C.ar    1  UNL1        0.1396
     26 F         141.4710  145.6304  163.8676 F       1  UNL1       -0.2044
@<TRIPOS>BOND
     1    13    14   am
     2    14    15    2
     3     7    14    1
     4     7     8    1
     5     8     9    1
     6     9    10    1
     7    10     1    1
     8     1     2   ar
     9     2     3   ar
    10     3     4   ar
    11     4    18    1
    12    18    19    1
    13    19    20    1
    14    20    21   ar
    15    21    22   ar
    16    22    23   ar
    17    23    24   ar
    18    24    25   ar
    19    25    26    1
    20     4     5   ar
    21     5     6   ar
    22    10    11    1
    23    11     7    1
    24     6     1   ar
    25    25    20   ar
    26    13    16    1
    27    13    17    1
    28    11    12    1
@<TRIPOS>MOLECULE
*****
 26 28 0 0 0
SMALL
GASTEIGER

@<TRIPOS>ATOM
      1 C         140.5320  139.6614  166.6053 C.ar    1  UNL1        0.0734
      2 C         139.0518  139.4188  166.6141 C.ar    1  UNL1        0.0192
      3 C         138.3529  139.0004  165.3545 C.ar    1  UNL1        0.0398
      4 C         139.1342  138.8247  164.0862 C.ar    1  UNL1        0.1581
      5 C         140.6144  139.0673  164.0774 C.ar    1  UNL1        0.1353
      6 N         141.3133  139.4856  165.3369 N.ar    1  UNL1       -0.2436
      7 C         141.7856  141.2509  169.9170 C.3     1  UNL1        0.1315
      8 C         142.8275  140.1961  169.6892 C.3     1  UNL1        0.0269
      9 C         142.4847  139.4723  168.4209 C.3     1  UNL1        0.0237
     10 C         141.2310  140.0797  167.8649 C.3     1  UNL1        0.0952
     11 N         140.7989  141.1790  168.7895 N.3     1  UNL1       -0.2877
     12 H         139.8686  140.9775  169.1560 H       1  UNL1        0.1239
     13 N         142.8218  143.2333  171.2385 N.am    1  UNL1       -0.3277
     14 C         141.7387  142.2094  171.0699 C.2     1  UNL1        0.2336
     15 O         140.6087  142.1440  172.0542 O.2     1  UNL1       -0.2739
     16 H         142.7910  143.8624  171.9952 H       1  UNL1        0.1450
     17 H         143.5635  143.2763  170.5925 H       1  UNL1        0.1450
     18 O         138.4352  138.4063  162.8266 O.3     1  UNL1       -0.4690
     19 C         137.7198  139.4265  161.9916 C.3     1  UNL1        0.2343
     20 C         138.0756  140.8786  162.1135 C.ar    1  UNL1        0.0486
     21 C         137.3099  141.7621  163.0533 C.ar    1  UNL1        0.0016
     22 C         137.6658  143.2141  163.1751 C.ar    1  UNL1       -0.0001
     23 C         138.7873  143.7827  162.3573 C.ar    1  UNL1        0.0023
     24 C         139.5530  142.8992  161.4175 C.ar    1  UNL1        0.0294
     25 C         139.1971  141.4471  161.2957 C.ar    1  UNL1        0.1396
     26 F         139.9628  140.5636  160.3559 F       1  UNL1       -0.2044
@<TRIPOS>BOND
     1    13    14   am
     2    14    15    2
     3     7    14    1
     4     7     8    1
     5     8     9    1
     6     9    10    1
     7    10     1    1
     8     1     2   ar
     9     2     3   ar
    10     3     4   ar
    11     4    18    1
    12    18    19    1
    13    19    20    1
    14    20    21   ar
    15    21    22   ar
    16    22    23   ar
    17    23    24   ar
    18    24    25   ar
    19    25    26    1
    20     4     5   ar
    21     5     6   ar
    22    10    11    1
    23    11     7    1
    24     6     1   ar
    25    25    20   ar
    26    13    16    1
    27    13    17    1
    28    11    12    1
@<TRIPOS>MOLECULE
*****
 26 28 0 0 0
SMALL
GASTEIGER

@<TRIPOS>ATOM
      1 C         140.1895  141.8836  166.0703 C.ar    1  UNL1        0.0734
      2 C         139.3525  140.6389  166.0572 C.ar    1  UNL1        0.0192
      3 C         138.3449  140.4241  164.9671 C.ar    1  UNL1        0.0398
      4 C         138.1741  141.4540  163.8901 C.ar    1  UNL1        0.1581
      5 C         139.0110  142.6987  163.9031 C.ar    1  UNL1        0.1353
      6 N         140.0187  142.9135  164.9932 N.ar    1  UNL1       -0.2436
      7 C         142.1934  142.5694  169.3229 C.3     1  UNL1        0.1315
      8 C         143.3026  142.2886  168.3528 C.3     1  UNL1        0.0269
      9 C         142.6869  141.9975  167.0164 C.3     1  UNL1        0.0237
     10 C         141.1972  142.0984  167.1604 C.3     1  UNL1        0.0952
     11 N         140.8923  142.4518  168.5859 N.3     1  UNL1       -0.2877
     12 H         140.3197  141.7213  169.0088 H       1  UNL1        0.1239
     13 N         143.3676  143.9330  171.1969 N.am    1  UNL1       -0.3277
     14 C         142.3568  142.9082  170.7750 C.2     1  UNL1        0.2336
     15 O         141.5093  142.2223  171.8052 O.2     1  UNL1       -0.2739
     16 H         143.4748  144.1554  172.1499 H       1  UNL1        0.1450
     17 H         143.9238  144.3832  170.5208 H       1  UNL1        0.1450
     18 O         137.1663  141.2392  162.7999 O.3     1  UNL1       -0.4690
     19 C         137.5434  140.4646  161.5720 C.3     1  UNL1        0.2343
     20 C         138.9255  139.8974  161.4380 C.ar    1  UNL1        0.0486
     21 C         140.0134  140.7140  160.8061 C.ar    1  UNL1        0.0016
     22 C         141.3955  140.1468  160.6721 C.ar    1  UNL1       -0.0001
     23 C         141.6897  138.7628  161.1702 C.ar    1  UNL1        0.0023
     24 C         140.6018  137.9461  161.8022 C.ar    1  UNL1        0.0294
     25 C         139.2197  138.5134  161.9361 C.ar    1  UNL1        0.1396
     26 F         138.1317  137.6967  162.5681 F       1  UNL1       -0.2044
@<TRIPOS>BOND
     1    13    14   am
     2    14    15    2
     3     7    14    1
     4     7     8    1
     5     8     9    1
     6     9    10    1
     7    10     1    1
     8     1     2   ar
     9     2     3   ar
    10     3     4   ar
    11     4    18    1
    12    18    19    1
    13    19    20    1
    14    20    21   ar
    15    21    22   ar
    16    22    23   ar
    17    23    24   ar
    18    24    25   ar
    19    25    26    1
    20     4     5   ar
    21     5     6   ar
    22    10    11    1
    23    11     7    1
    24     6     1   ar
    25    25    20   ar
    26    13    16    1
    27    13    17    1
    28    11    12    1
@<TRIPOS>MOLECULE
*****
 26 28 0 0 0
SMALL
GASTEIGER

@<TRIPOS>ATOM
      1 C         140.5944  143.0079  166.1564 C.ar    1  UNL1        0.0734
      2 C         139.4202  143.8663  165.7896 C.ar    1  UNL1        0.0192
      3 C         139.4667  144.7112  164.5512 C.ar    1  UNL1        0.0398
      4 C         140.6873  144.6978  163.6795 C.ar    1  UNL1        0.1581
      5 C         141.8615  143.8394  164.0462 C.ar    1  UNL1        0.1353
      6 N         141.8150  142.9945  165.2847 N.ar    1  UNL1       -0.2436
      7 C         140.8476  141.3944  169.6775 C.3     1  UNL1        0.1315
      8 C         140.1052  140.3308  168.9240 C.3     1  UNL1        0.0269
      9 C         139.9200  140.8058  167.5133 C.3     1  UNL1        0.0237
     10 C         140.5479  142.1629  167.3949 C.3     1  UNL1        0.0952
     11 N         141.1212  142.5267  168.7325 N.3     1  UNL1       -0.2877
     12 H         140.6808  143.3796  169.0775 H       1  UNL1        0.1239
     13 N         142.3924  140.4675  171.5496 N.am    1  UNL1       -0.3277
     14 C         141.2464  141.3359  171.1224 C.2     1  UNL1        0.2336
     15 O         140.4991  142.1458  172.1400 O.2     1  UNL1       -0.2739
     16 H         142.6541  140.4292  172.4979 H       1  UNL1        0.1450
     17 H         142.8829  139.9360  170.8816 H       1  UNL1        0.1450
     18 O         140.7338  145.5428  162.4409 O.3     1  UNL1       -0.4690
     19 C         139.9330  145.1504  161.2348 C.3     1  UNL1        0.2343
     20 C         139.8232  143.7061  160.8448 C.ar    1  UNL1        0.0486
     21 C         140.8932  143.0724  160.0061 C.ar    1  UNL1        0.0016
     22 C         140.7834  141.6282  159.6161 C.ar    1  UNL1       -0.0001
     23 C         139.6036  140.8177  160.0647 C.ar    1  UNL1        0.0023
     24 C         138.5336  141.4515  160.9034 C.ar    1  UNL1        0.0294
     25 C         138.6434  142.8957  161.2934 C.ar    1  UNL1        0.1396
     26 F         137.5734  143.5295  162.1322 F       1  UNL1       -0.2044
@<TRIPOS>BOND
     1    13    14   am
     2    14    15    2
     3     7    14    1
     4     7     8    1
     5     8     9    1
     6     9    10    1
     7    10     1    1
     8     1     2   ar
     9     2     3   ar
    10     3     4   ar
    11     4    18    1
    12    18    19    1
    13    19    20    1
    14    20    21   ar
    15    21    22   ar
    16    22    23   ar
    17    23    24   ar
    18    24    25   ar
    19    25    26    1
    20     4     5   ar
    21     5     6   ar
    22    10    11    1
    23    11     7    1
    24     6     1   ar
    25    25    20   ar
    26    13    16    1
    27    13    17    1
    28    11    12    1
@<TRIPOS>MOLECULE
*****
 26 28 0 0 0
SMALL
GASTEIGER

@<TRIPOS>ATOM
      1 C         140.5145  140.4539  166.1295 C.ar    1  UNL1        0.0734
      2 C         139.0440  140.1788  166.0205 C.ar    1  UNL1        0.0192
      3 C         138.4034  140.0489  164.6704 C.ar    1  UNL1        0.0398
      4 C         139.2333  140.1942  163.4294 C.ar    1  UNL1        0.1581
      5 C         140.7038  140.4693  163.5384 C.ar    1  UNL1        0.1353
      6 N         141.3443  140.5992  164.8885 N.ar    1  UNL1       -0.2436
      7 C         141.7283  141.3947  169.6943 C.3     1  UNL1        0.1315
      8 C         142.5537  140.1725  169.4201 C.3     1  UNL1        0.0269
      9 C         142.1994  139.6714  168.0515 C.3     1  UNL1        0.0237
     10 C         141.1551  140.5838  167.4797 C.3     1  UNL1        0.0952
     11 N         140.8639  141.6488  168.4950 N.3     1  UNL1       -0.2877
     12 H         139.8805  141.6119  168.7630 H       1  UNL1        0.1239
     13 N         142.8850  143.1841  171.1808 N.am    1  UNL1       -0.3277
     14 C         141.7615  142.2181  170.9476 C.2     1  UNL1        0.2336
     15 O         140.6711  142.0755  171.9678 O.2     1  UNL1       -0.2739
     16 H         142.9067  143.7246  172.0034 H       1  UNL1        0.1450
     17 H         143.6006  143.2778  170.5113 H       1  UNL1        0.1450
     18 O         138.5926  140.0643  162.0793 O.3     1  UNL1       -0.4690
     19 C         137.8941  141.2406  161.4643 C.3     1  UNL1        0.2343
     20 C         138.4855  142.6135  161.5893 C.ar    1  UNL1        0.0486
     21 C         139.4766  143.0986  160.5733 C.ar    1  UNL1        0.0016
     22 C         140.0679  144.4715  160.6985 C.ar    1  UNL1       -0.0001
     23 C         139.6681  145.3592  161.8396 C.ar    1  UNL1        0.0023
     24 C         138.6769  144.8740  162.8556 C.ar    1  UNL1        0.0294
     25 C         138.0857  143.5012  162.7305 C.ar    1  UNL1        0.1396
     26 F         137.0945  143.0160  163.7465 F       1  UNL1       -0.2044
@<TRIPOS>BOND
     1    13    14   am
     2    14    15    2
     3     7    14    1
     4     7     8    1
     5     8     9    1
     6     9    10    1
     7    10     1    1
     8     1     2   ar
     9     2     3   ar
    10     3     4   ar
    11     4    18    1
    12    18    19    1
    13    19    20    1
    14    20    21   ar
    15    21    22   ar
    16    22    23   ar
    17    23    24   ar
    18    24    25   ar
    19    25    26    1
    20     4     5   ar
    21     5     6   ar
    22    10    11    1
    23    11     7    1
    24     6     1   ar
    25    25    20   ar
    26    13    16    1
    27    13    17    1
    28    11    12    1
@<TRIPOS>MOLECULE
*****
 26 28 0 0 0
SMALL
GASTEIGER

@<TRIPOS>ATOM
      1 C         140.0941  140.0834  166.3026 C.ar    1  UNL1        0.0734
      2 C         140.9085  140.1628  165.0455 C.ar    1  UNL1        0.0192
      3 C         140.5089  139.3629  163.8412 C.ar    1  UNL1        0.0398
      4 C         139.2949  138.4834  163.8940 C.ar    1  UNL1        0.1581
      5 C         138.4805  138.4040  165.1511 C.ar    1  UNL1        0.1353
      6 N         138.8801  139.2039  166.3554 N.ar    1  UNL1       -0.2436
      7 C         141.1110  141.4893  169.7746 C.3     1  UNL1        0.1315
      8 C         141.1061  142.7396  168.9457 C.3     1  UNL1        0.0269
      9 C         140.7246  142.3650  167.5443 C.3     1  UNL1        0.0237
     10 C         140.4937  140.8834  167.5069 C.3     1  UNL1        0.0952
     11 N         140.7325  140.3422  168.8854 N.3     1  UNL1       -0.2877
     12 H         141.4885  139.6579  168.8624 H       1  UNL1        0.1239
     13 N         142.5783  140.5458  171.6999 N.am    1  UNL1       -0.3277
     14 C         141.4371  141.4017  171.2361 C.2     1  UNL1        0.2336
     15 O         140.6220  142.1699  172.2338 O.2     1  UNL1       -0.2739
     16 H         142.7923  140.4883  172.6591 H       1  UNL1        0.1450
     17 H         143.1133  140.0416  171.0451 H       1  UNL1        0.1450
     18 O         138.8953  137.6834  162.6896 O.3     1  UNL1       -0.4690
     19 C         137.9061  138.2441  161.7113 C.3     1  UNL1        0.2343
     20 C         138.1664  139.5686  161.0572 C.ar    1  UNL1        0.0486
     21 C         138.8091  139.6229  159.7030 C.ar    1  UNL1        0.0016
     22 C         139.0694  140.9474  159.0489 C.ar    1  UNL1       -0.0001
     23 C         138.6870  142.2177  159.7491 C.ar    1  UNL1        0.0023
     24 C         138.0443  142.1634  161.1033 C.ar    1  UNL1        0.0294
     25 C         137.7840  140.8389  161.7574 C.ar    1  UNL1        0.1396
     26 F         137.1413  140.7846  163.1117 F       1  UNL1       -0.2044
@<TRIPOS>BOND
     1    13    14   am
     2    14    15    2
     3     7    14    1
     4     7     8    1
     5     8     9    1
     6     9    10    1
     7    10     1    1
     8     1     2   ar
     9     2     3   ar
    10     3     4   ar
    11     4    18    1
    12    18    19    1
    13    19    20    1
    14    20    21   ar
    15    21    22   ar
    16    22    23   ar
    17    23    24   ar
    18    24    25   ar
    19    25    26    1
    20     4     5   ar
    21     5     6   ar
    22    10    11    1
    23    11     7    1
    24     6     1   ar
    25    25    20   ar
    26    13    16    1
    27    13    17    1
    28    11    12    1
