@<TRIPOS>MOLECULE
*****
 32 35 0 0 0
SMALL
GASTEIGER

@<TRIPOS>ATOM
      1 C         140.1132  139.8078  164.7810 C.ar    1  UNL1        0.0874
      2 N         139.1722  138.7124  164.3753 N.ar    1  UNL1       -0.2239
      3 C         138.4692  138.7796  163.0520 C.ar    1  UNL1        0.1988
      4 N         138.7072  139.9421  162.1344 N.ar    1  UNL1       -0.2239
      5 C         139.6482  141.0375  162.5401 C.ar    1  UNL1        0.0858
      6 C         139.8862  142.2000  161.6225 C.ar    1  UNL1        0.0394
      7 C         140.8272  143.2953  162.0283 C.ar    1  UNL1        0.1267
      8 C         141.5302  143.2282  163.3517 C.ar    1  UNL1        0.0203
      9 C         141.2922  142.0657  164.2693 C.ar    1  UNL1        0.0044
     10 C         140.3512  140.9703  163.8634 C.ar    1  UNL1        0.0356
     11 C         142.1842  139.1323  166.1969 C.ar    1  UNL1        0.1400
     12 C         142.8873  139.0652  167.5202 C.ar    1  UNL1        0.0408
     13 C         142.2224  139.6065  168.7511 C.ar    1  UNL1        0.0744
     14 C         140.8544  140.2148  168.6586 C.ar    1  UNL1        0.0041
     15 C         140.1513  140.2819  167.3352 C.ar    1  UNL1        0.0045
     16 C         140.8162  139.7407  166.1044 C.ar    1  UNL1        0.0517
     17 C         142.9254  139.5393  170.0744 C.3     1  UNL1        0.4187
     18 F         143.6285  139.4722  171.3977 F       1  UNL1       -0.1659
     19 F         143.3246  140.9785  169.9353 F       1  UNL1       -0.1659
     20 F         142.5263  138.1002  170.2135 F       1  UNL1       -0.1659
     21 C         143.9915  139.3360  164.3416 C.3     1  UNL1        0.2525
     22 O         142.8491  138.5911  164.9660 O.3     1  UNL1       -0.4714
     23 S         141.0651  144.4578  161.1107 S.O2    1  UNL1        0.0751
     24 O         139.6248  144.8557  161.2412 O.2     1  UNL1       -0.1499
     25 O         142.5055  144.0600  160.9803 O.2     1  UNL1       -0.1499
     26 N         141.3031  145.6203  160.1931 N.pl3   1  UNL1       -0.1937
     27 H         141.4064  146.5266  160.5635 H       1  UNL1        0.1758
     28 C         141.3837  145.4019  158.7113 C.ar    1  UNL1        0.1786
     29 N         142.3531  146.0597  157.7745 N.ar    1  UNL1       -0.2214
     30 C         142.0776  145.5517  156.3903 C.ar    1  UNL1        0.1079
     31 C         140.9378  144.5798  156.4716 C.ar    1  UNL1        0.0588
     32 S         140.5090  144.4873  157.9060 S.2     1  UNL1       -0.0497
@<TRIPOS>BOND
     1    21    22    1
     2    22    11    1
     3    11    12   ar
     4    12    13   ar
     5    13    17    1
     6    17    18    1
     7    17    19    1
     8    17    20    1
     9    13    14   ar
    10    14    15   ar
    11    15    16   ar
    12    16     1    1
    13     1     2   ar
    14     2     3   ar
    15     3     4   ar
    16     4     5   ar
    17     5     6   ar
    18     6     7   ar
    19     7    23    1
    20    23    24    2
    21    23    25    2
    22    23    26    1
    23    26    28    1
    24    28    29   ar
    25    29    30   ar
    26    30    31   ar
    27    31    32   ar
    28     7     8   ar
    29     8     9   ar
    30     9    10   ar
    31    16    11   ar
    32    10     1   ar
    33    10     5   ar
    34    32    28   ar
    35    26    27    1
@<TRIPOS>MOLECULE
*****
 32 35 0 0 0
SMALL
GASTEIGER

@<TRIPOS>ATOM
      1 C         140.4502  139.5683  164.2925 C.ar    1  UNL1        0.0874
      2 N         140.2881  138.2170  163.6618 N.ar    1  UNL1       -0.2239
      3 C         140.3136  138.0784  162.1685 C.ar    1  UNL1        0.1988
      4 N         140.5013  139.2911  161.3058 N.ar    1  UNL1       -0.2239
      5 C         140.6633  140.6424  161.9365 C.ar    1  UNL1        0.0858
      6 C         140.8509  141.8550  161.0738 C.ar    1  UNL1        0.0394
      7 C         141.0130  143.2063  161.7044 C.ar    1  UNL1        0.1267
      8 C         140.9875  143.3450  163.1978 C.ar    1  UNL1        0.0203
      9 C         140.7998  142.1323  164.0605 C.ar    1  UNL1        0.0044
     10 C         140.6378  140.7810  163.4298 C.ar    1  UNL1        0.0356
     11 C         141.7106  139.7909  166.5534 C.ar    1  UNL1        0.1400
     12 C         141.6851  139.9296  168.0467 C.ar    1  UNL1        0.0408
     13 C         140.3736  139.9843  168.7726 C.ar    1  UNL1        0.0744
     14 C         139.0875  139.9003  168.0051 C.ar    1  UNL1        0.0041
     15 C         139.1131  139.7616  166.5117 C.ar    1  UNL1        0.0045
     16 C         140.4246  139.7070  165.7859 C.ar    1  UNL1        0.0517
     17 C         140.3481  140.1229  170.2660 C.3     1  UNL1        0.4187
     18 F         140.3226  140.2616  171.7593 F       1  UNL1       -0.1659
     19 F         141.4652  139.1282  170.3774 F       1  UNL1       -0.1659
     20 F         139.2309  141.1176  170.1545 F       1  UNL1       -0.1659
     21 C         143.8225  138.4676  165.8193 C.3     1  UNL1        0.2525
     22 O         143.0222  139.7362  165.8275 O.3     1  UNL1       -0.4714
     23 S         141.2006  144.4190  160.8417 S.O2    1  UNL1        0.0751
     24 O         139.7580  144.3536  160.4361 O.2     1  UNL1       -0.1499
     25 O         142.6433  144.4843  161.2474 O.2     1  UNL1       -0.1499
     26 N         141.3883  145.6316  159.9790 N.pl3   1  UNL1       -0.1937
     27 H         141.5378  146.5121  160.3933 H       1  UNL1        0.1758
     28 C         141.3480  145.5028  158.4851 C.ar    1  UNL1        0.1786
     29 N         140.3794  146.1873  157.5668 N.ar    1  UNL1       -0.2214
     30 C         140.7021  145.7744  156.1614 C.ar    1  UNL1        0.1079
     31 C         141.8702  144.8345  156.2110 C.ar    1  UNL1        0.0588
     32 S         142.2693  144.6667  157.6471 S.2     1  UNL1       -0.0497
@<TRIPOS>BOND
     1    21    22    1
     2    22    11    1
     3    11    12   ar
     4    12    13   ar
     5    13    17    1
     6    17    18    1
     7    17    19    1
     8    17    20    1
     9    13    14   ar
    10    14    15   ar
    11    15    16   ar
    12    16     1    1
    13     1     2   ar
    14     2     3   ar
    15     3     4   ar
    16     4     5   ar
    17     5     6   ar
    18     6     7   ar
    19     7    23    1
    20    23    24    2
    21    23    25    2
    22    23    26    1
    23    26    28    1
    24    28    29   ar
    25    29    30   ar
    26    30    31   ar
    27    31    32   ar
    28     7     8   ar
    29     8     9   ar
    30     9    10   ar
    31    16    11   ar
    32    10     1   ar
    33    10     5   ar
    34    32    28   ar
    35    26    27    1
@<TRIPOS>MOLECULE
*****
 32 35 0 0 0
SMALL
GASTEIGER

@<TRIPOS>ATOM
      1 C         139.7395  140.6072  167.2502 C.ar    1  UNL1        0.0874
      2 N         138.9820  139.4515  167.8338 N.ar    1  UNL1       -0.2239
      3 C         137.9496  138.7394  167.0111 C.ar    1  UNL1        0.1988
      4 N         137.6746  139.1830  165.6048 N.ar    1  UNL1       -0.2239
      5 C         138.4320  140.3387  165.0213 C.ar    1  UNL1        0.0858
      6 C         138.1570  140.7823  163.6150 C.ar    1  UNL1        0.0394
      7 C         138.9145  141.9380  163.0314 C.ar    1  UNL1        0.1267
      8 C         139.9470  142.6502  163.8542 C.ar    1  UNL1        0.0203
      9 C         140.2220  142.2066  165.2604 C.ar    1  UNL1        0.0044
     10 C         139.4645  141.0508  165.8440 C.ar    1  UNL1        0.0356
     11 C         142.1871  140.8222  168.0949 C.ar    1  UNL1        0.1400
     12 C         143.2196  141.5343  168.9175 C.ar    1  UNL1        0.0408
     13 C         142.8370  142.7436  169.7183 C.ar    1  UNL1        0.0744
     14 C         141.4220  143.2408  169.6964 C.ar    1  UNL1        0.0041
     15 C         140.3895  142.5287  168.8737 C.ar    1  UNL1        0.0045
     16 C         140.7720  141.3194  168.0730 C.ar    1  UNL1        0.0517
     17 C         143.8696  143.4557  170.5410 C.3     1  UNL1        0.4187
     18 F         144.9021  144.1678  171.3636 F       1  UNL1       -0.1659
     19 F         142.8225  144.4143  171.0255 F       1  UNL1       -0.1659
     20 F         144.9166  142.4972  170.0565 F       1  UNL1       -0.1659
     21 C         143.0170  139.7667  165.8706 C.3     1  UNL1        0.2525
     22 O         142.5696  139.6128  167.2941 O.3     1  UNL1       -0.4714
     23 S         138.6395  142.3816  161.6252 S.O2    1  UNL1        0.0751
     24 O         139.5443  141.3028  161.1079 O.2     1  UNL1       -0.1499
     25 O         137.7347  143.4604  162.1424 O.2     1  UNL1       -0.1499
     26 N         138.3645  142.8252  160.2189 N.pl3   1  UNL1       -0.1937
     27 H         137.5160  142.5816  159.7829 H       1  UNL1        0.1758
     28 C         139.3822  143.6399  159.4769 C.ar    1  UNL1        0.1786
     29 N         140.0199  144.9081  159.9617 N.ar    1  UNL1       -0.2214
     30 C         140.9727  145.3815  158.9042 C.ar    1  UNL1        0.1079
     31 C         140.9238  144.4058  157.7659 C.ar    1  UNL1        0.0588
     32 S         139.9408  143.3295  158.1198 S.2     1  UNL1       -0.0497
@<TRIPOS>BOND
     1    21    22    1
     2    22    11    1
     3    11    12   ar
     4    12    13   ar
     5    13    17    1
     6    17    18    1
     7    17    19    1
     8    17    20    1
     9    13    14   ar
    10    14    15   ar
    11    15    16   ar
    12    16     1    1
    13     1     2   ar
    14     2     3   ar
    15     3     4   ar
    16     4     5   ar
    17     5     6   ar
    18     6     7   ar
    19     7    23    1
    20    23    24    2
    21    23    25    2
    22    23    26    1
    23    26    28    1
    24    28    29   ar
    25    29    30   ar
    26    30    31   ar
    27    31    32   ar
    28     7     8   ar
    29     8     9   ar
    30     9    10   ar
    31    16    11   ar
    32    10     1   ar
    33    10     5   ar
    34    32    28   ar
    35    26    27    1
@<TRIPOS>MOLECULE
*****
 32 35 0 0 0
SMALL
GASTEIGER

@<TRIPOS>ATOM
      1 C         141.6032  139.4721  164.2876 C.ar    1  UNL1        0.0874
      2 N         141.8452  138.1084  163.7116 N.ar    1  UNL1       -0.2239
      3 C         142.1229  137.9518  162.2459 C.ar    1  UNL1        0.1988
      4 N         142.1586  139.1589  161.3562 N.ar    1  UNL1       -0.2239
      5 C         141.9166  140.5226  161.9322 C.ar    1  UNL1        0.0858
      6 C         141.9523  141.7297  161.0424 C.ar    1  UNL1        0.0394
      7 C         141.7103  143.0934  161.6184 C.ar    1  UNL1        0.1267
      8 C         141.4326  143.2500  163.0842 C.ar    1  UNL1        0.0203
      9 C         141.3969  142.0429  163.9739 C.ar    1  UNL1        0.0044
     10 C         141.6389  140.6792  163.3979 C.ar    1  UNL1        0.0356
     11 C         139.9103  139.6570  166.2497 C.ar    1  UNL1        0.1400
     12 C         139.6325  139.8136  167.7154 C.ar    1  UNL1        0.0408
     13 C         140.7700  139.9420  168.6848 C.ar    1  UNL1        0.0744
     14 C         142.1852  139.9137  168.1885 C.ar    1  UNL1        0.0041
     15 C         142.4629  139.7571  166.7227 C.ar    1  UNL1        0.0045
     16 C         141.3255  139.6287  165.7534 C.ar    1  UNL1        0.0517
     17 C         140.4923  140.0986  170.1505 C.3     1  UNL1        0.4187
     18 F         140.2145  140.2552  171.6162 F       1  UNL1       -0.1659
     19 F         141.5415  139.0721  170.4590 F       1  UNL1       -0.1659
     20 F         139.4430  141.1252  169.8420 F       1  UNL1       -0.1659
     21 C         138.0961  140.7583  164.7510 C.3     1  UNL1        0.2525
     22 O         138.7728  139.5287  165.2803 O.3     1  UNL1       -0.4714
     23 S         141.7460  144.3005  160.7286 S.O2    1  UNL1        0.0751
     24 O         142.9532  143.7494  160.0294 O.2     1  UNL1       -0.1499
     25 O         140.5388  144.8516  161.4279 O.2     1  UNL1       -0.1499
     26 N         141.7817  145.5076  159.8389 N.pl3   1  UNL1       -0.1937
     27 H         142.1317  146.3616  160.1817 H       1  UNL1        0.1758
     28 C         141.2842  145.4135  158.4269 C.ar    1  UNL1        0.1786
     29 N         139.9773  144.8209  157.9902 N.ar    1  UNL1       -0.2214
     30 C         139.8917  144.9367  156.4971 C.ar    1  UNL1        0.1079
     31 C         141.1458  145.6009  156.0110 C.ar    1  UNL1        0.0588
     32 S         142.0064  145.8956  157.2037 S.2     1  UNL1       -0.0497
@<TRIPOS>BOND
     1    21    22    1
     2    22    11    1
     3    11    12   ar
     4    12    13   ar
     5    13    17    1
     6    17    18    1
     7    17    19    1
     8    17    20    1
     9    13    14   ar
    10    14    15   ar
    11    15    16   ar
    12    16     1    1
    13     1     2   ar
    14     2     3   ar
    15     3     4   ar
    16     4     5   ar
    17     5     6   ar
    18     6     7   ar
    19     7    23    1
    20    23    24    2
    21    23    25    2
    22    23    26    1
    23    26    28    1
    24    28    29   ar
    25    29    30   ar
    26    30    31   ar
    27    31    32   ar
    28     7     8   ar
    29     8     9   ar
    30     9    10   ar
    31    16    11   ar
    32    10     1   ar
    33    10     5   ar
    34    32    28   ar
    35    26    27    1
@<TRIPOS>MOLECULE
*****
 32 35 0 0 0
SMALL
GASTEIGER

@<TRIPOS>ATOM
      1 C         139.4805  142.9137  164.3808 C.ar    1  UNL1        0.0874
      2 N         138.2356  143.7075  164.1161 N.ar    1  UNL1       -0.2239
      3 C         138.0646  144.4201  162.8074 C.ar    1  UNL1        0.1988
      4 N         139.1385  144.3388  161.7632 N.ar    1  UNL1       -0.2239
      5 C         140.3833  143.5450  162.0279 C.ar    1  UNL1        0.0858
      6 C         141.4572  143.4637  160.9837 C.ar    1  UNL1        0.0394
      7 C         142.7020  142.6698  161.2483 C.ar    1  UNL1        0.1267
      8 C         142.8731  141.9572  162.5572 C.ar    1  UNL1        0.0203
      9 C         141.7992  142.0385  163.6013 C.ar    1  UNL1        0.0044
     10 C         140.5543  142.8324  163.3366 C.ar    1  UNL1        0.0356
     11 C         139.1242  140.8071  165.8591 C.ar    1  UNL1        0.1400
     12 C         139.2952  140.0944  167.1678 C.ar    1  UNL1        0.0408
     13 C         139.9936  140.7757  168.3072 C.ar    1  UNL1        0.0744
     14 C         140.5210  142.1697  168.1377 C.ar    1  UNL1        0.0041
     15 C         140.3499  142.8823  166.8289 C.ar    1  UNL1        0.0045
     16 C         139.6515  142.2010  165.6896 C.ar    1  UNL1        0.0517
     17 C         140.1646  140.0631  169.6159 C.3     1  UNL1        0.4187
     18 F         140.3357  139.3504  170.9246 F       1  UNL1       -0.1659
     19 F         138.8398  140.5936  170.0779 F       1  UNL1       -0.1659
     20 F         141.4894  139.5326  169.1539 F       1  UNL1       -0.1659
     21 C         138.9403  138.8161  164.2000 C.3     1  UNL1        0.2525
     22 O         138.4257  140.1257  164.7197 O.3     1  UNL1       -0.4714
     23 S         143.7759  142.5886  160.2042 S.O2    1  UNL1        0.0751
     24 O         144.4966  141.5609  161.0254 O.2     1  UNL1       -0.1499
     25 O         143.0551  143.6162  159.3829 O.2     1  UNL1       -0.1499
     26 N         144.8497  142.5073  159.1600 N.pl3   1  UNL1       -0.1937
     27 H         145.6938  142.9990  159.2827 H       1  UNL1        0.1758
     28 C         144.6376  141.6768  157.9290 C.ar    1  UNL1        0.1786
     29 N         144.1927  140.2446  157.8975 N.ar    1  UNL1       -0.2214
     30 C         144.1132  139.8154  156.4625 C.ar    1  UNL1        0.1079
     31 C         144.5090  140.9823  155.6070 C.ar    1  UNL1        0.0588
     32 S         144.8330  142.1327  156.5134 S.2     1  UNL1       -0.0497
@<TRIPOS>BOND
     1    21    22    1
     2    22    11    1
     3    11    12   ar
     4    12    13   ar
     5    13    17    1
     6    17    18    1
     7    17    19    1
     8    17    20    1
     9    13    14   ar
    10    14    15   ar
    11    15    16   ar
    12    16     1    1
    13     1     2   ar
    14     2     3   ar
    15     3     4   ar
    16     4     5   ar
    17     5     6   ar
    18     6     7   ar
    19     7    23    1
    20    23    24    2
    21    23    25    2
    22    23    26    1
    23    26    28    1
    24    28    29   ar
    25    29    30   ar
    26    30    31   ar
    27    31    32   ar
    28     7     8   ar
    29     8     9   ar
    30     9    10   ar
    31    16    11   ar
    32    10     1   ar
    33    10     5   ar
    34    32    28   ar
    35    26    27    1
@<TRIPOS>MOLECULE
*****
 32 35 0 0 0
SMALL
GASTEIGER

@<TRIPOS>ATOM
      1 C         140.1415  139.9647  165.5478 C.ar    1  UNL1        0.0874
      2 N         139.6934  138.5507  165.7705 N.ar    1  UNL1       -0.2239
      3 C         139.0221  137.7935  164.6634 C.ar    1  UNL1        0.1988
      4 N         138.7988  138.4504  163.3334 N.ar    1  UNL1       -0.2239
      5 C         139.2469  139.8644  163.1107 C.ar    1  UNL1        0.0858
      6 C         139.0236  140.5212  161.7808 C.ar    1  UNL1        0.0394
      7 C         139.4717  141.9353  161.5580 C.ar    1  UNL1        0.1267
      8 C         140.1431  142.6926  162.6652 C.ar    1  UNL1        0.0203
      9 C         140.3664  142.0357  163.9951 C.ar    1  UNL1        0.0044
     10 C         139.9182  140.6216  164.2179 C.ar    1  UNL1        0.0356
     11 C         142.2992  140.6279  166.8342 C.ar    1  UNL1        0.1400
     12 C         142.9706  141.3851  167.9413 C.ar    1  UNL1        0.0408
     13 C         142.1557  142.2365  168.8693 C.ar    1  UNL1        0.0744
     14 C         140.6694  142.3306  168.6902 C.ar    1  UNL1        0.0041
     15 C         139.9980  141.5733  167.5830 C.ar    1  UNL1        0.0045
     16 C         140.8129  140.7220  166.6550 C.ar    1  UNL1        0.0517
     17 C         142.8271  142.9937  169.9765 C.3     1  UNL1        0.4187
     18 F         143.4985  143.7509  171.0836 F       1  UNL1       -0.1659
     19 F         141.6236  143.8804  170.0999 F       1  UNL1       -0.1659
     20 F         144.0306  142.1070  169.8531 F       1  UNL1       -0.1659
     21 C         143.5030  138.3857  166.3114 C.3     1  UNL1        0.2525
     22 O         143.1141  139.7765  165.9061 O.3     1  UNL1       -0.4714
     23 S         139.2484  142.5921  160.2281 S.O2    1  UNL1        0.0751
     24 O         137.9200  143.1019  160.7029 O.2     1  UNL1       -0.1499
     25 O         140.5768  142.0823  159.7533 O.2     1  UNL1       -0.1499
     26 N         139.0251  143.2490  158.8982 N.pl3   1  UNL1       -0.1937
     27 H         139.4343  144.1236  158.7062 H       1  UNL1        0.1758
     28 C         138.1783  142.5732  157.8607 C.ar    1  UNL1        0.1786
     29 N         137.4963  143.2443  156.7055 N.ar    1  UNL1       -0.2214
     30 C         136.7613  142.1935  155.9271 C.ar    1  UNL1        0.1079
     31 C         136.9892  140.8730  156.6013 C.ar    1  UNL1        0.0588
     32 S         137.8649  141.1077  157.7963 S.2     1  UNL1       -0.0497
@<TRIPOS>BOND
     1    21    22    1
     2    22    11    1
     3    11    12   ar
     4    12    13   ar
     5    13    17    1
     6    17    18    1
     7    17    19    1
     8    17    20    1
     9    13    14   ar
    10    14    15   ar
    11    15    16   ar
    12    16     1    1
    13     1     2   ar
    14     2     3   ar
    15     3     4   ar
    16     4     5   ar
    17     5     6   ar
    18     6     7   ar
    19     7    23    1
    20    23    24    2
    21    23    25    2
    22    23    26    1
    23    26    28    1
    24    28    29   ar
    25    29    30   ar
    26    30    31   ar
    27    31    32   ar
    28     7     8   ar
    29     8     9   ar
    30     9    10   ar
    31    16    11   ar
    32    10     1   ar
    33    10     5   ar
    34    32    28   ar
    35    26    27    1
@<TRIPOS>MOLECULE
*****
 32 35 0 0 0
SMALL
GASTEIGER

@<TRIPOS>ATOM
      1 C         139.1437  141.4296  163.6381 C.ar    1  UNL1        0.0874
      2 N         138.1181  142.4632  163.2778 N.ar    1  UNL1       -0.2239
      3 C         137.8983  142.8324  161.8407 C.ar    1  UNL1        0.1988
      4 N         138.7040  142.1680  160.7639 N.ar    1  UNL1       -0.2239
      5 C         139.7295  141.1344  161.1242 C.ar    1  UNL1        0.0858
      6 C         140.5352  140.4700  160.0475 C.ar    1  UNL1        0.0394
      7 C         141.5607  139.4364  160.4078 C.ar    1  UNL1        0.1267
      8 C         141.7806  139.0672  161.8450 C.ar    1  UNL1        0.0203
      9 C         140.9749  139.7316  162.9217 C.ar    1  UNL1        0.0044
     10 C         139.9494  140.7652  162.5613 C.ar    1  UNL1        0.0356
     11 C         140.3333  141.8425  165.9106 C.ar    1  UNL1        0.1400
     12 C         140.5533  141.4733  167.3477 C.ar    1  UNL1        0.0408
     13 C         139.8034  140.3219  167.9495 C.ar    1  UNL1        0.0744
     14 C         138.8336  139.5398  167.1142 C.ar    1  UNL1        0.0041
     15 C         138.6137  139.9091  165.6770 C.ar    1  UNL1        0.0045
     16 C         139.3636  141.0604  165.0753 C.ar    1  UNL1        0.0517
     17 C         140.0233  139.9527  169.3866 C.3     1  UNL1        0.4187
     18 F         140.2432  139.5835  170.8237 F       1  UNL1       -0.1659
     19 F         138.6015  140.3159  169.6975 F       1  UNL1       -0.1659
     20 F         141.4450  139.5895  169.0757 F       1  UNL1       -0.1659
     21 C         142.5577  142.8795  165.0579 C.3     1  UNL1        0.2525
     22 O         141.0833  142.9938  165.3088 O.3     1  UNL1       -0.4714
     23 S         142.3664  138.7720  159.3310 S.O2    1  UNL1        0.0751
     24 O         142.5391  137.5651  160.2049 O.2     1  UNL1       -0.1499
     25 O         142.1938  139.9789  158.4572 O.2     1  UNL1       -0.1499
     26 N         143.1721  138.1076  158.2543 N.pl3   1  UNL1       -0.1937
     27 H         144.1359  138.2926  158.1755 H       1  UNL1        0.1758
     28 C         142.5094  137.1613  157.2975 C.ar    1  UNL1        0.1786
     29 N         141.1826  137.3686  156.6291 N.ar    1  UNL1       -0.2214
     30 C         140.9104  136.1769  155.7597 C.ar    1  UNL1        0.1079
     31 C         142.0689  135.2331  155.8907 C.ar    1  UNL1        0.0588
     32 S         143.0572  135.8415  156.8411 S.2     1  UNL1       -0.0497
@<TRIPOS>BOND
     1    21    22    1
     2    22    11    1
     3    11    12   ar
     4    12    13   ar
     5    13    17    1
     6    17    18    1
     7    17    19    1
     8    17    20    1
     9    13    14   ar
    10    14    15   ar
    11    15    16   ar
    12    16     1    1
    13     1     2   ar
    14     2     3   ar
    15     3     4   ar
    16     4     5   ar
    17     5     6   ar
    18     6     7   ar
    19     7    23    1
    20    23    24    2
    21    23    25    2
    22    23    26    1
    23    26    28    1
    24    28    29   ar
    25    29    30   ar
    26    30    31   ar
    27    31    32   ar
    28     7     8   ar
    29     8     9   ar
    30     9    10   ar
    31    16    11   ar
    32    10     1   ar
    33    10     5   ar
    34    32    28   ar
    35    26    27    1
@<TRIPOS>MOLECULE
*****
 32 35 0 0 0
SMALL
GASTEIGER

@<TRIPOS>ATOM
      1 C         140.6143  143.6641  163.7274 C.ar    1  UNL1        0.0874
      2 N         140.3180  145.1288  163.5984 N.ar    1  UNL1       -0.2239
      3 C         139.7169  145.6637  162.3326 C.ar    1  UNL1        0.1988
      4 N         139.4122  144.7339  161.1956 N.ar    1  UNL1       -0.2239
      5 C         139.7085  143.2692  161.3246 C.ar    1  UNL1        0.0858
      6 C         139.4038  142.3394  160.1877 C.ar    1  UNL1        0.0394
      7 C         139.7001  140.8746  160.3167 C.ar    1  UNL1        0.1267
      8 C         140.3012  140.3397  161.5826 C.ar    1  UNL1        0.0203
      9 C         140.6060  141.2695  162.7195 C.ar    1  UNL1        0.0044
     10 C         140.3096  142.7343  162.5905 C.ar    1  UNL1        0.0356
     11 C         142.7020  142.9627  165.1058 C.ar    1  UNL1        0.1400
     12 C         143.3031  142.4277  166.3717 C.ar    1  UNL1        0.0408
     13 C         142.4177  142.0591  167.5251 C.ar    1  UNL1        0.0744
     14 C         140.9312  142.2255  167.4126 C.ar    1  UNL1        0.0041
     15 C         140.3301  142.7605  166.1467 C.ar    1  UNL1        0.0045
     16 C         141.2155  143.1291  164.9933 C.ar    1  UNL1        0.0517
     17 C         143.0189  141.5242  168.7910 C.3     1  UNL1        0.4187
     18 F         143.6200  140.9892  170.0568 F       1  UNL1       -0.1659
     19 F         142.9571  140.1334  168.2325 F       1  UNL1       -0.1659
     20 F         143.0806  142.9149  169.3494 F       1  UNL1       -0.1659
     21 C         144.2285  142.2563  163.1257 C.3     1  UNL1        0.2525
     22 O         143.5873  143.3313  163.9524 O.3     1  UNL1       -0.4714
     23 S         139.3954  139.9448  159.1797 S.O2    1  UNL1        0.0751
     24 O         138.9953  138.8802  160.1577 O.2     1  UNL1       -0.1499
     25 O         139.7955  141.0095  158.2018 O.2     1  UNL1       -0.1499
     26 N         139.0906  139.0150  158.0428 N.pl3   1  UNL1       -0.1937
     27 H         138.1807  138.9762  157.6690 H       1  UNL1        0.1758
     28 C         140.1723  138.1443  157.4755 C.ar    1  UNL1        0.1786
     29 N         141.5702  138.0174  158.0044 N.ar    1  UNL1       -0.2214
     30 C         142.3078  137.0422  157.1355 C.ar    1  UNL1        0.1079
     31 C         141.3657  136.5664  156.0695 C.ar    1  UNL1        0.0588
     32 S         140.0459  137.2475  156.2797 S.2     1  UNL1       -0.0497
@<TRIPOS>BOND
     1    21    22    1
     2    22    11    1
     3    11    12   ar
     4    12    13   ar
     5    13    17    1
     6    17    18    1
     7    17    19    1
     8    17    20    1
     9    13    14   ar
    10    14    15   ar
    11    15    16   ar
    12    16     1    1
    13     1     2   ar
    14     2     3   ar
    15     3     4   ar
    16     4     5   ar
    17     5     6   ar
    18     6     7   ar
    19     7    23    1
    20    23    24    2
    21    23    25    2
    22    23    26    1
    23    26    28    1
    24    28    29   ar
    25    29    30   ar
    26    30    31   ar
    27    31    32   ar
    28     7     8   ar
    29     8     9   ar
    30     9    10   ar
    31    16    11   ar
    32    10     1   ar
    33    10     5   ar
    34    32    28   ar
    35    26    27    1
@<TRIPOS>MOLECULE
*****
 32 35 0 0 0
SMALL
GASTEIGER

@<TRIPOS>ATOM
      1 C         141.1897  142.3402  163.3187 C.ar    1  UNL1        0.0874
      2 N         141.1533  143.7555  163.8142 N.ar    1  UNL1       -0.2239
      3 C         141.9207  144.8229  163.0920 C.ar    1  UNL1        0.1988
      4 N         142.7246  144.4750  161.8743 N.ar    1  UNL1       -0.2239
      5 C         142.7610  143.0597  161.3788 C.ar    1  UNL1        0.0858
      6 C         143.5648  142.7118  160.1611 C.ar    1  UNL1        0.0394
      7 C         143.6012  141.2964  159.6657 C.ar    1  UNL1        0.1267
      8 C         142.8338  140.2290  160.3879 C.ar    1  UNL1        0.0203
      9 C         142.0299  140.5769  161.6056 C.ar    1  UNL1        0.0044
     10 C         141.9935  141.9923  162.1011 C.ar    1  UNL1        0.0356
     11 C         139.0074  140.9687  163.6459 C.ar    1  UNL1        0.1400
     12 C         138.2400  139.9013  164.3681 C.ar    1  UNL1        0.0408
     13 C         138.8872  139.1379  165.4854 C.ar    1  UNL1        0.0744
     14 C         140.3020  139.4419  165.8804 C.ar    1  UNL1        0.0041
     15 C         141.0695  140.5094  165.1582 C.ar    1  UNL1        0.0045
     16 C         140.4222  141.2727  164.0410 C.ar    1  UNL1        0.0517
     17 C         138.1198  138.0704  166.2076 C.3     1  UNL1        0.4187
     18 F         137.3523  137.0030  166.9297 F       1  UNL1       -0.1659
     19 F         138.8387  137.0183  165.4164 F       1  UNL1       -0.1659
     20 F         137.4008  139.1226  166.9987 F       1  UNL1       -0.1659
     21 C         137.7250  143.0638  162.7996 C.3     1  UNL1        0.2525
     22 O         138.3602  141.7322  162.5286 O.3     1  UNL1       -0.4714
     23 S         144.4051  140.9485  158.4480 S.O2    1  UNL1        0.0751
     24 O         144.0204  139.5073  158.6059 O.2     1  UNL1       -0.1499
     25 O         144.7897  142.3898  158.2901 O.2     1  UNL1       -0.1499
     26 N         145.2089  140.6006  157.2303 N.pl3   1  UNL1       -0.1937
     27 H         146.1918  140.5730  157.2806 H       1  UNL1        0.1758
     28 C         144.5153  140.2947  155.9359 C.ar    1  UNL1        0.1786
     29 N         143.3791  141.0714  155.3395 N.ar    1  UNL1       -0.2214
     30 C         142.9977  140.4151  154.0457 C.ar    1  UNL1        0.1079
     31 C         143.8983  139.2328  153.8425 C.ar    1  UNL1        0.0588
     32 S         144.8362  139.1584  155.0107 S.2     1  UNL1       -0.0497
@<TRIPOS>BOND
     1    21    22    1
     2    22    11    1
     3    11    12   ar
     4    12    13   ar
     5    13    17    1
     6    17    18    1
     7    17    19    1
     8    17    20    1
     9    13    14   ar
    10    14    15   ar
    11    15    16   ar
    12    16     1    1
    13     1     2   ar
    14     2     3   ar
    15     3     4   ar
    16     4     5   ar
    17     5     6   ar
    18     6     7   ar
    19     7    23    1
    20    23    24    2
    21    23    25    2
    22    23    26    1
    23    26    28    1
    24    28    29   ar
    25    29    30   ar
    26    30    31   ar
    27    31    32   ar
    28     7     8   ar
    29     8     9   ar
    30     9    10   ar
    31    16    11   ar
    32    10     1   ar
    33    10     5   ar
    34    32    28   ar
    35    26    27    1
