@<TRIPOS>MOLECULE
*****
 35 39 0 0 0
SMALL
GASTEIGER

@<TRIPOS>ATOM
      1 C         143.3911  142.3260  161.8017 C.2     1  UNL1        0.1157
      2 N         143.4769  142.8589  160.4022 N.2     1  UNL1       -0.1790
      3 N         142.2444  143.6723  160.1395 N.pl3   1  UNL1       -0.2060
      4 C         141.7843  144.4366  158.9335 C.ar    1  UNL1        0.1052
      5 C         142.6320  144.4667  157.6964 C.ar    1  UNL1        0.0490
      6 C         142.1719  145.2310  156.4905 C.ar    1  UNL1        0.1416
      7 F         143.0196  145.2611  155.2533 F       1  UNL1       -0.2041
      8 C         140.8643  145.9651  156.5217 C.ar    1  UNL1        0.0328
      9 C         140.0166  145.9350  157.7589 C.ar    1  UNL1        0.0405
     10 C         140.4767  145.1708  158.9648 C.ar    1  UNL1        0.1537
     11 O         139.6290  145.1406  160.2020 O.3     1  UNL1       -0.4723
     12 C         140.0890  144.3764  161.4079 C.3     1  UNL1        0.2277
     13 C         141.3967  143.6422  161.3766 C.3     1  UNL1        0.1488
     14 C         142.1054  142.8102  162.4040 C.3     1  UNL1        0.0806
     15 C         140.9160  143.1345  163.2583 C.ar    1  UNL1       -0.0157
     16 C         140.8063  144.4804  163.9114 C.ar    1  UNL1       -0.0039
     17 C         139.6168  144.8049  164.7658 C.ar    1  UNL1       -0.0003
     18 C         138.5370  143.7833  164.9671 C.ar    1  UNL1       -0.0000
     19 C         138.6467  142.4374  164.3141 C.ar    1  UNL1       -0.0003
     20 C         139.8362  142.1130  163.4597 C.ar    1  UNL1       -0.0039
     21 C         144.2103  139.9761  162.5478 C.3     1  UNL1        0.0786
     22 C         144.4117  141.4609  162.4799 C.2     1  UNL1        0.1887
     23 O         145.6338  142.0807  163.0903 O.2     1  UNL1       -0.2900
     24 C         142.5655  142.0459  163.6100 C.3     1  UNL1        0.0130
     25 C         142.9065  142.7757  164.8752 C.3     1  UNL1        0.0181
     26 C         143.3960  142.0145  166.0714 C.3     1  UNL1        0.0722
     27 N         142.5017  141.8322  167.2618 N.3     1  UNL1       -0.2708
     28 C         143.0010  142.4220  168.5474 C.3     1  UNL1        0.0818
     29 C         142.3483  142.4094  169.8979 C.3     1  UNL1        0.1026
     30 C         141.0350  141.8040  170.2963 C.2     1  UNL1        0.2271
     31 O         140.6566  141.9618  171.7392 O.2     1  UNL1       -0.2748
     32 N         140.0501  141.0615  169.4427 N.am    1  UNL1       -0.2763
     33 C         138.8170  140.5751  170.1448 C.3     1  UNL1        0.1149
     34 C         140.1352  140.7412  167.9798 C.3     1  UNL1        0.1107
     35 C         141.2263  141.0841  167.0092 C.3     1  UNL1        0.0939
@<TRIPOS>BOND
     1    21    22    1
     2    22    23    2
     3    22     1    1
     4     1     2    2
     5     2     3    1
     6     3     4    1
     7     4     5   ar
     8     5     6   ar
     9     6     7    1
    10     6     8   ar
    11     8     9   ar
    12     9    10   ar
    13    10    11    1
    14    11    12    1
    15    13    12    1
    16    13    14    1
    17    14    24    1
    18    24    25    1
    19    25    26    1
    20    26    27    1
    21    27    28    1
    22    28    29    1
    23    29    30    1
    24    30    31    2
    25    30    32   am
    26    32    33    1
    27    32    34    1
    28    34    35    1
    29    14    15    1
    30    15    16   ar
    31    16    17   ar
    32    17    18   ar
    33    18    19   ar
    34    19    20   ar
    35    14     1    1
    36    35    27    1
    37    20    15   ar
    38    13     3    1
    39    10     4   ar
@<TRIPOS>MOLECULE
*****
 35 39 0 0 0
SMALL
GASTEIGER

@<TRIPOS>ATOM
      1 C         138.7242  142.3599  161.0245 C.2     1  UNL1        0.1157
      2 N         138.4995  142.7271  159.5876 N.2     1  UNL1       -0.1790
      3 N         139.5979  143.6596  159.1704 N.pl3   1  UNL1       -0.2060
      4 C         139.8920  144.3453  157.8691 C.ar    1  UNL1        0.1052
      5 C         138.9886  144.1362  156.6901 C.ar    1  UNL1        0.0490
      6 C         139.2828  144.8220  155.3889 C.ar    1  UNL1        0.1416
      7 F         138.3794  144.6129  154.2099 F       1  UNL1       -0.2041
      8 C         140.4804  145.7168  155.2667 C.ar    1  UNL1        0.0328
      9 C         141.3839  145.9259  156.4457 C.ar    1  UNL1        0.0405
     10 C         141.0897  145.2402  157.7469 C.ar    1  UNL1        0.1537
     11 O         141.9931  145.4493  158.9260 O.3     1  UNL1       -0.4723
     12 C         141.6989  144.7635  160.2272 C.3     1  UNL1        0.2277
     13 C         140.5013  143.8687  160.3494 C.3     1  UNL1        0.1488
     14 C         139.9613  143.0654  161.4953 C.3     1  UNL1        0.0806
     15 C         141.1370  143.6276  162.2382 C.ar    1  UNL1       -0.0157
     16 C         140.9551  144.8055  163.1488 C.ar    1  UNL1       -0.0039
     17 C         142.1308  145.3678  163.8917 C.ar    1  UNL1       -0.0003
     18 C         143.4883  144.7520  163.7239 C.ar    1  UNL1       -0.0000
     19 C         143.6701  143.5740  162.8132 C.ar    1  UNL1       -0.0003
     20 C         142.4944  143.0118  162.0703 C.ar    1  UNL1       -0.0039
     21 C         137.8359  139.9764  161.5538 C.3     1  UNL1        0.0786
     22 C         137.8628  141.4473  161.8464 C.2     1  UNL1        0.1887
     23 O         137.0284  142.0057  162.9608 O.2     1  UNL1       -0.2900
     24 C         139.6671  142.3796  162.7966 C.3     1  UNL1        0.0130
     25 C         140.6051  141.3336  163.3219 C.3     1  UNL1        0.0181
     26 C         140.2524  140.5637  164.5600 C.3     1  UNL1        0.0722
     27 N         140.9459  140.8673  165.8550 N.3     1  UNL1       -0.2708
     28 C         142.0713  141.8556  165.7744 C.3     1  UNL1        0.0818
     29 C         142.9511  142.3631  166.8784 C.3     1  UNL1        0.1026
     30 C         142.9227  142.0076  168.3353 C.2     1  UNL1        0.2271
     31 O         143.9446  142.6936  169.1927 O.2     1  UNL1       -0.2748
     32 N         142.0075  141.0568  169.0483 N.am    1  UNL1       -0.2763
     33 C         142.2352  140.9177  170.5244 C.3     1  UNL1        0.1149
     34 C         140.8947  140.2267  168.4804 C.3     1  UNL1        0.1107
     35 C         140.4222  140.1423  167.0592 C.3     1  UNL1        0.0939
@<TRIPOS>BOND
     1    21    22    1
     2    22    23    2
     3    22     1    1
     4     1     2    2
     5     2     3    1
     6     3     4    1
     7     4     5   ar
     8     5     6   ar
     9     6     7    1
    10     6     8   ar
    11     8     9   ar
    12     9    10   ar
    13    10    11    1
    14    11    12    1
    15    13    12    1
    16    13    14    1
    17    14    24    1
    18    24    25    1
    19    25    26    1
    20    26    27    1
    21    27    28    1
    22    28    29    1
    23    29    30    1
    24    30    31    2
    25    30    32   am
    26    32    33    1
    27    32    34    1
    28    34    35    1
    29    14    15    1
    30    15    16   ar
    31    16    17   ar
    32    17    18   ar
    33    18    19   ar
    34    19    20   ar
    35    14     1    1
    36    35    27    1
    37    20    15   ar
    38    13     3    1
    39    10     4   ar
@<TRIPOS>MOLECULE
*****
 35 39 0 0 0
SMALL
GASTEIGER

@<TRIPOS>ATOM
      1 C         140.5616  138.8391  164.1264 C.2     1  UNL1        0.1157
      2 N         139.8184  138.9457  165.4250 N.2     1  UNL1       -0.1790
      3 N         140.5369  139.9384  166.2900 N.pl3   1  UNL1       -0.2060
      4 C         140.2633  140.4463  167.6747 C.ar    1  UNL1        0.1052
      5 C         139.0762  139.9394  168.4386 C.ar    1  UNL1        0.0490
      6 C         138.8027  140.4472  169.8232 C.ar    1  UNL1        0.1416
      7 F         137.6154  139.9403  170.5872 F       1  UNL1       -0.2041
      8 C         139.7164  141.4620  170.4440 C.ar    1  UNL1        0.0328
      9 C         140.9036  141.9689  169.6801 C.ar    1  UNL1        0.0405
     10 C         141.1771  141.4611  168.2955 C.ar    1  UNL1        0.1537
     11 O         142.3643  141.9680  167.5315 O.3     1  UNL1       -0.4723
     12 C         142.6378  141.4601  166.1469 C.3     1  UNL1        0.2277
     13 C         141.7240  140.4453  165.5261 C.3     1  UNL1        0.1488
     14 C         141.7393  139.7659  164.1889 C.3     1  UNL1        0.0806
     15 C         142.9743  140.5866  163.9619 C.ar    1  UNL1       -0.0157
     16 C         144.3290  139.9705  164.1494 C.ar    1  UNL1       -0.0039
     17 C         145.5640  140.7912  163.9224 C.ar    1  UNL1       -0.0003
     18 C         145.4442  142.2278  163.5080 C.ar    1  UNL1       -0.0000
     19 C         144.0895  142.8438  163.3206 C.ar    1  UNL1       -0.0003
     20 C         142.8544  142.0232  163.5475 C.ar    1  UNL1       -0.0039
     21 C         138.8924  138.1727  162.2503 C.3     1  UNL1        0.0786
     22 C         140.1919  137.9600  162.9685 C.2     1  UNL1        0.1887
     23 O         141.1218  136.8682  162.5290 O.2     1  UNL1       -0.2900
     24 C         142.0128  139.2581  162.8042 C.3     1  UNL1        0.0130
     25 C         141.8270  140.1636  161.6229 C.3     1  UNL1        0.0181
     26 C         142.5818  139.9040  160.3530 C.3     1  UNL1        0.0722
     27 N         141.9539  139.0905  159.2602 N.3     1  UNL1       -0.2708
     28 C         140.4961  139.3447  159.0153 C.3     1  UNL1        0.0818
     29 C         139.5912  138.7015  158.0065 C.3     1  UNL1        0.1026
     30 C         139.9207  137.6453  156.9936 C.2     1  UNL1        0.2271
     31 O         138.7842  137.2047  156.1194 O.2     1  UNL1       -0.2748
     32 N         141.2365  136.9715  156.7393 N.am    1  UNL1       -0.2763
     33 C         141.2417  135.9461  155.6444 C.3     1  UNL1        0.1149
     34 C         142.5477  137.1873  157.4350 C.3     1  UNL1        0.1107
     35 C         142.8670  138.1304  158.5570 C.3     1  UNL1        0.0939
@<TRIPOS>BOND
     1    21    22    1
     2    22    23    2
     3    22     1    1
     4     1     2    2
     5     2     3    1
     6     3     4    1
     7     4     5   ar
     8     5     6   ar
     9     6     7    1
    10     6     8   ar
    11     8     9   ar
    12     9    10   ar
    13    10    11    1
    14    11    12    1
    15    13    12    1
    16    13    14    1
    17    14    24    1
    18    24    25    1
    19    25    26    1
    20    26    27    1
    21    27    28    1
    22    28    29    1
    23    29    30    1
    24    30    31    2
    25    30    32   am
    26    32    33    1
    27    32    34    1
    28    34    35    1
    29    14    15    1
    30    15    16   ar
    31    16    17   ar
    32    17    18   ar
    33    18    19   ar
    34    19    20   ar
    35    14     1    1
    36    35    27    1
    37    20    15   ar
    38    13     3    1
    39    10     4   ar
@<TRIPOS>MOLECULE
*****
 35 39 0 0 0
SMALL
GASTEIGER

@<TRIPOS>ATOM
      1 C         139.6021  139.0960  162.6276 C.2     1  UNL1        0.1157
      2 N         139.3877  138.9845  161.1471 N.2     1  UNL1       -0.1790
      3 N         139.0683  140.3523  160.6208 N.pl3   1  UNL1       -0.2060
      4 C         138.7641  140.8501  159.2388 C.ar    1  UNL1        0.1052
      5 C         138.7471  139.8933  158.0838 C.ar    1  UNL1        0.0490
      6 C         138.4430  140.3911  156.7020 C.ar    1  UNL1        0.1416
      7 F         138.4260  139.4343  155.5468 F       1  UNL1       -0.2041
      8 C         138.1558  141.8458  156.4751 C.ar    1  UNL1        0.0328
      9 C         138.1727  142.8026  157.6301 C.ar    1  UNL1        0.0405
     10 C         138.4769  142.3048  159.0120 C.ar    1  UNL1        0.1537
     11 O         138.4938  143.2616  160.1671 O.3     1  UNL1       -0.4723
     12 C         138.7980  142.7638  161.5490 C.3     1  UNL1        0.2277
     13 C         139.0852  141.3091  161.7758 C.3     1  UNL1        0.1488
     14 C         139.4152  140.5327  163.0161 C.3     1  UNL1        0.0806
     15 C         139.2918  141.8653  163.6935 C.ar    1  UNL1       -0.0157
     16 C         137.9355  142.4335  163.9895 C.ar    1  UNL1       -0.0039
     17 C         137.8121  143.7661  164.6670 C.ar    1  UNL1       -0.0003
     18 C         139.0450  144.5306  165.0485 C.ar    1  UNL1       -0.0000
     19 C         140.4013  143.9624  164.7526 C.ar    1  UNL1       -0.0003
     20 C         140.5247  142.6297  164.0751 C.ar    1  UNL1       -0.0039
     21 C         141.3790  137.6186  163.8150 C.3     1  UNL1        0.0786
     22 C         139.9436  137.9687  163.5564 C.2     1  UNL1        0.1887
     23 O         138.8495  137.1915  164.2265 O.2     1  UNL1       -0.2900
     24 C         139.7193  140.0349  164.3981 C.3     1  UNL1        0.0130
     25 C         138.7124  140.2082  165.4962 C.3     1  UNL1        0.0181
     26 C         138.9509  139.5818  166.8381 C.3     1  UNL1        0.0722
     27 N         139.8809  140.2359  167.8165 N.3     1  UNL1       -0.2708
     28 C         139.3316  140.4453  169.1964 C.3     1  UNL1        0.0818
     29 C         140.0031  141.0647  170.3863 C.3     1  UNL1        0.1026
     30 C         141.3896  141.6275  170.4900 C.2     1  UNL1        0.2271
     31 O         141.7687  142.1810  171.8316 O.2     1  UNL1       -0.2748
     32 N         142.4471  141.7099  169.4294 N.am    1  UNL1       -0.2763
     33 C         143.7440  142.3350  169.8508 C.3     1  UNL1        0.1149
     34 C         142.3794  141.2500  168.0033 C.3     1  UNL1        0.1107
     35 C         141.2373  140.5940  167.2855 C.3     1  UNL1        0.0939
@<TRIPOS>BOND
     1    21    22    1
     2    22    23    2
     3    22     1    1
     4     1     2    2
     5     2     3    1
     6     3     4    1
     7     4     5   ar
     8     5     6   ar
     9     6     7    1
    10     6     8   ar
    11     8     9   ar
    12     9    10   ar
    13    10    11    1
    14    11    12    1
    15    13    12    1
    16    13    14    1
    17    14    24    1
    18    24    25    1
    19    25    26    1
    20    26    27    1
    21    27    28    1
    22    28    29    1
    23    29    30    1
    24    30    31    2
    25    30    32   am
    26    32    33    1
    27    32    34    1
    28    34    35    1
    29    14    15    1
    30    15    16   ar
    31    16    17   ar
    32    17    18   ar
    33    18    19   ar
    34    19    20   ar
    35    14     1    1
    36    35    27    1
    37    20    15   ar
    38    13     3    1
    39    10     4   ar
@<TRIPOS>MOLECULE
*****
 35 39 0 0 0
SMALL
GASTEIGER

@<TRIPOS>ATOM
      1 C         143.2835  142.3539  161.6920 C.2     1  UNL1        0.1157
      2 N         143.3997  142.8835  160.2933 N.2     1  UNL1       -0.1790
      3 N         142.1878  143.7217  160.0130 N.pl3   1  UNL1       -0.2060
      4 C         141.7603  144.4939  158.8001 C.ar    1  UNL1        0.1052
      5 C         142.6255  144.5054  157.5749 C.ar    1  UNL1        0.0490
      6 C         142.1979  145.2776  156.3621 C.ar    1  UNL1        0.1416
      7 F         143.0632  145.2891  155.1368 F       1  UNL1       -0.2041
      8 C         140.9052  146.0384  156.3746 C.ar    1  UNL1        0.0328
      9 C         140.0400  146.0269  157.5998 C.ar    1  UNL1        0.0405
     10 C         140.4676  145.2547  158.8126 C.ar    1  UNL1        0.1537
     11 O         139.6023  145.2431  160.0379 O.3     1  UNL1       -0.4723
     12 C         140.0299  144.4709  161.2507 C.3     1  UNL1        0.2277
     13 C         141.3226  143.7102  161.2382 C.3     1  UNL1        0.1488
     14 C         141.9998  142.8649  162.2759 C.3     1  UNL1        0.0806
     15 C         140.8054  143.2143  163.1134 C.ar    1  UNL1       -0.0157
     16 C         139.5243  142.4519  162.9478 C.ar    1  UNL1       -0.0039
     17 C         138.3299  142.8013  163.7853 C.ar    1  UNL1       -0.0003
     18 C         138.4167  143.9133  164.7884 C.ar    1  UNL1       -0.0000
     19 C         139.6978  144.6757  164.9540 C.ar    1  UNL1       -0.0003
     20 C         140.8922  144.3263  164.1165 C.ar    1  UNL1       -0.0039
     21 C         145.2804  142.0627  163.3283 C.3     1  UNL1        0.0786
     22 C         144.2767  141.4688  162.3850 C.2     1  UNL1        0.1887
     23 O         144.2662  139.9899  162.1346 O.2     1  UNL1       -0.2900
     24 C         142.4273  142.0926  163.4887 C.3     1  UNL1        0.0130
     25 C         141.6131  140.9240  163.9592 C.3     1  UNL1        0.0181
     26 C         142.1287  140.0454  165.0602 C.3     1  UNL1        0.0722
     27 N         141.5626  140.1667  166.4440 N.3     1  UNL1       -0.2708
     28 C         140.1162  139.7974  166.5901 C.3     1  UNL1        0.0818
     29 C         139.2677  139.8115  167.8270 C.3     1  UNL1        0.1026
     30 C         139.6561  140.1983  169.2233 C.2     1  UNL1        0.2271
     31 O         138.5678  140.1044  170.2512 O.2     1  UNL1       -0.2748
     32 N         140.9889  140.6666  169.7274 N.am    1  UNL1       -0.2763
     33 C         141.0572  140.9792  171.1930 C.3     1  UNL1        0.1149
     34 C         142.2625  140.8638  168.9600 C.3     1  UNL1        0.1107
     35 C         142.5178  140.6413  167.4986 C.3     1  UNL1        0.0939
@<TRIPOS>BOND
     1    21    22    1
     2    22    23    2
     3    22     1    1
     4     1     2    2
     5     2     3    1
     6     3     4    1
     7     4     5   ar
     8     5     6   ar
     9     6     7    1
    10     6     8   ar
    11     8     9   ar
    12     9    10   ar
    13    10    11    1
    14    11    12    1
    15    13    12    1
    16    13    14    1
    17    14    24    1
    18    24    25    1
    19    25    26    1
    20    26    27    1
    21    27    28    1
    22    28    29    1
    23    29    30    1
    24    30    31    2
    25    30    32   am
    26    32    33    1
    27    32    34    1
    28    34    35    1
    29    14    15    1
    30    15    16   ar
    31    16    17   ar
    32    17    18   ar
    33    18    19   ar
    34    19    20   ar
    35    14     1    1
    36    35    27    1
    37    20    15   ar
    38    13     3    1
    39    10     4   ar
@<TRIPOS>MOLECULE
*****
 35 39 0 0 0
SMALL
GASTEIGER

@<TRIPOS>ATOM
      1 C         143.5172  139.6879  163.0948 C.2     1  UNL1        0.1157
      2 N         143.6157  139.4873  161.6115 N.2     1  UNL1       -0.1790
      3 N         142.2494  139.1406  161.0989 N.pl3   1  UNL1       -0.2060
      4 C         141.7420  138.8355  159.7206 C.ar    1  UNL1        0.1052
      5 C         142.6850  138.8493  158.5542 C.ar    1  UNL1        0.0490
      6 C         142.1777  138.5442  157.1760 C.ar    1  UNL1        0.1416
      7 F         143.1207  138.5579  156.0095 F       1  UNL1       -0.2041
      8 C         140.7273  138.2255  156.9642 C.ar    1  UNL1        0.0328
      9 C         139.7843  138.2117  158.1306 C.ar    1  UNL1        0.0405
     10 C         140.2917  138.5168  159.5088 C.ar    1  UNL1        0.1537
     11 O         139.3487  138.5030  160.6753 O.3     1  UNL1       -0.4723
     12 C         139.8560  138.8081  162.0535 C.3     1  UNL1        0.2277
     13 C         141.3064  139.1268  162.2653 C.3     1  UNL1        0.1488
     14 C         142.0899  139.4651  163.4988 C.3     1  UNL1        0.0806
     15 C         140.7687  139.3061  164.1910 C.ar    1  UNL1       -0.0157
     16 C         140.2453  137.9353  164.5022 C.ar    1  UNL1       -0.0039
     17 C         138.9240  137.7762  165.1944 C.ar    1  UNL1       -0.0003
     18 C         138.1263  138.9880  165.5755 C.ar    1  UNL1       -0.0000
     19 C         138.6497  140.3588  165.2643 C.ar    1  UNL1       -0.0003
     20 C         139.9710  140.5179  164.5721 C.ar    1  UNL1       -0.0039
     21 C         144.9415  141.4884  164.3112 C.3     1  UNL1        0.0786
     22 C         144.6475  140.0481  164.0128 C.2     1  UNL1        0.1887
     23 O         145.4838  138.9679  164.6323 O.2     1  UNL1       -0.2900
     24 C         142.5972  139.7702  164.8771 C.3     1  UNL1        0.0130
     25 C         142.4560  138.7531  165.9705 C.3     1  UNL1        0.0181
     26 C         143.0407  139.0222  167.3253 C.3     1  UNL1        0.0722
     27 N         142.3984  140.0291  168.2329 N.3     1  UNL1       -0.2708
     28 C         142.1022  139.5551  169.6248 C.3     1  UNL1        0.0818
     29 C         141.4717  140.3118  170.7561 C.3     1  UNL1        0.1026
     30 C         140.9816  141.7293  170.7749 C.2     1  UNL1        0.2271
     31 O         140.3945  142.1979  172.0733 O.2     1  UNL1       -0.2748
     32 N         141.0010  142.7403  169.6670 N.am    1  UNL1       -0.2763
     33 C         140.4307  144.0862  170.0040 C.3     1  UNL1        0.1149
     34 C         141.5153  142.5835  168.2667 C.3     1  UNL1        0.1107
     35 C         142.1372  141.3769  167.6284 C.3     1  UNL1        0.0939
@<TRIPOS>BOND
     1    21    22    1
     2    22    23    2
     3    22     1    1
     4     1     2    2
     5     2     3    1
     6     3     4    1
     7     4     5   ar
     8     5     6   ar
     9     6     7    1
    10     6     8   ar
    11     8     9   ar
    12     9    10   ar
    13    10    11    1
    14    11    12    1
    15    13    12    1
    16    13    14    1
    17    14    24    1
    18    24    25    1
    19    25    26    1
    20    26    27    1
    21    27    28    1
    22    28    29    1
    23    29    30    1
    24    30    31    2
    25    30    32   am
    26    32    33    1
    27    32    34    1
    28    34    35    1
    29    14    15    1
    30    15    16   ar
    31    16    17   ar
    32    17    18   ar
    33    18    19   ar
    34    19    20   ar
    35    14     1    1
    36    35    27    1
    37    20    15   ar
    38    13     3    1
    39    10     4   ar
@<TRIPOS>MOLECULE
*****
 35 39 0 0 0
SMALL
GASTEIGER

@<TRIPOS>ATOM
      1 C         139.4600  140.4227  161.2599 C.2     1  UNL1        0.1157
      2 N         139.7655  140.8421  159.8525 N.2     1  UNL1       -0.1790
      3 N         139.8396  142.3399  159.8209 N.pl3   1  UNL1       -0.2060
      4 C         140.1100  143.3082  158.7076 C.ar    1  UNL1        0.1052
      5 C         140.3697  142.8019  157.3198 C.ar    1  UNL1        0.0490
      6 C         140.6401  143.7701  156.2066 C.ar    1  UNL1        0.1416
      7 F         140.8998  143.2638  154.8186 F       1  UNL1       -0.2041
      8 C         140.6508  145.2447  156.4812 C.ar    1  UNL1        0.0328
      9 C         140.3911  145.7511  157.8690 C.ar    1  UNL1        0.0405
     10 C         140.1207  144.7828  158.9822 C.ar    1  UNL1        0.1537
     11 O         139.8609  145.2891  160.3702 O.3     1  UNL1       -0.4723
     12 C         139.5906  144.3209  161.4834 C.3     1  UNL1        0.2277
     13 C         139.5799  142.8463  161.2088 C.3     1  UNL1        0.1488
     14 C         139.3453  141.6613  162.0981 C.3     1  UNL1        0.0806
     15 C         139.1740  142.6975  163.1691 C.ar    1  UNL1       -0.0157
     16 C         140.3784  143.3454  163.7853 C.ar    1  UNL1       -0.0039
     17 C         140.2072  144.3816  164.8563 C.ar    1  UNL1       -0.0003
     18 C         138.8316  144.7700  165.3110 C.ar    1  UNL1       -0.0000
     19 C         137.6272  144.1222  164.6948 C.ar    1  UNL1       -0.0003
     20 C         137.7984  143.0859  163.6238 C.ar    1  UNL1       -0.0039
     21 C         137.9256  138.4300  161.9115 C.3     1  UNL1        0.0786
     22 C         139.2978  139.0123  161.7441 C.2     1  UNL1        0.1887
     23 O         140.5077  138.1842  162.0608 O.2     1  UNL1       -0.2900
     24 C         139.0749  140.6931  163.2114 C.3     1  UNL1        0.0130
     25 C         140.0297  140.5893  164.3636 C.3     1  UNL1        0.0181
     26 C         139.5896  139.9496  165.6470 C.3     1  UNL1        0.0722
     27 N         140.0702  140.4937  166.9596 N.3     1  UNL1       -0.2708
     28 C         139.3325  140.0114  168.1733 C.3     1  UNL1        0.0818
     29 C         139.5673  140.3645  169.6122 C.3     1  UNL1        0.1026
     30 C         140.5979  141.2870  170.1926 C.2     1  UNL1        0.2271
     31 O         140.5752  141.4313  171.6855 O.2     1  UNL1       -0.2748
     32 N         141.6482  142.0842  169.4776 N.am    1  UNL1       -0.2763
     33 C         142.5369  142.9204  170.3500 C.3     1  UNL1        0.1149
     34 C         141.9273  142.1560  168.0056 C.3     1  UNL1        0.1107
     35 C         141.2250  141.4481  166.8849 C.3     1  UNL1        0.0939
@<TRIPOS>BOND
     1    21    22    1
     2    22    23    2
     3    22     1    1
     4     1     2    2
     5     2     3    1
     6     3     4    1
     7     4     5   ar
     8     5     6   ar
     9     6     7    1
    10     6     8   ar
    11     8     9   ar
    12     9    10   ar
    13    10    11    1
    14    11    12    1
    15    13    12    1
    16    13    14    1
    17    14    24    1
    18    24    25    1
    19    25    26    1
    20    26    27    1
    21    27    28    1
    22    28    29    1
    23    29    30    1
    24    30    31    2
    25    30    32   am
    26    32    33    1
    27    32    34    1
    28    34    35    1
    29    14    15    1
    30    15    16   ar
    31    16    17   ar
    32    17    18   ar
    33    18    19   ar
    34    19    20   ar
    35    14     1    1
    36    35    27    1
    37    20    15   ar
    38    13     3    1
    39    10     4   ar
@<TRIPOS>MOLECULE
*****
 35 39 0 0 0
SMALL
GASTEIGER

@<TRIPOS>ATOM
      1 C         140.6498  138.5884  164.3659 C.2     1  UNL1        0.1157
      2 N         139.8612  138.7745  165.6283 N.2     1  UNL1       -0.1790
      3 N         140.5832  139.7737  166.4827 N.pl3   1  UNL1       -0.2060
      4 C         140.2757  140.3465  167.8346 C.ar    1  UNL1        0.1052
      5 C         139.0409  139.9149  168.5688 C.ar    1  UNL1        0.0490
      6 C         138.7335  140.4877  169.9206 C.ar    1  UNL1        0.1416
      7 F         137.4987  140.0561  170.6549 F       1  UNL1       -0.2041
      8 C         139.6609  141.4920  170.5382 C.ar    1  UNL1        0.0328
      9 C         140.8956  141.9235  169.8040 C.ar    1  UNL1        0.0405
     10 C         141.2030  141.3508  168.4522 C.ar    1  UNL1        0.1537
     11 O         142.4378  141.7823  167.7179 O.3     1  UNL1       -0.4723
     12 C         142.7453  141.2096  166.3661 C.3     1  UNL1        0.2277
     13 C         141.8179  140.2053  165.7485 C.3     1  UNL1        0.1488
     14 C         141.8591  139.4727  164.4403 C.3     1  UNL1        0.0806
     15 C         143.1327  140.2373  164.2320 C.ar    1  UNL1       -0.0157
     16 C         144.4549  139.5401  164.3568 C.ar    1  UNL1       -0.0039
     17 C         145.7286  140.3046  164.1485 C.ar    1  UNL1       -0.0003
     18 C         145.6800  141.7664  163.8154 C.ar    1  UNL1       -0.0000
     19 C         144.3578  142.4636  163.6906 C.ar    1  UNL1       -0.0003
     20 C         143.0841  141.6990  163.8989 C.ar    1  UNL1       -0.0039
     21 C         139.0134  137.8886  162.4731 C.3     1  UNL1        0.0786
     22 C         140.2919  137.6779  163.2288 C.2     1  UNL1        0.1887
     23 O         141.2124  136.5566  162.8475 O.2     1  UNL1       -0.2900
     24 C         142.1666  138.9000  163.0884 C.3     1  UNL1        0.0130
     25 C         142.4696  139.8136  161.9380 C.3     1  UNL1        0.0181
     26 C         141.3611  140.2920  161.0480 C.3     1  UNL1        0.0722
     27 N         140.6694  141.5899  161.3431 N.3     1  UNL1       -0.2708
     28 C         139.3273  141.4768  162.0034 C.3     1  UNL1        0.0818
     29 C         138.3957  142.5752  162.4225 C.3     1  UNL1        0.1026
     30 C         138.5760  144.0579  162.2848 C.2     1  UNL1        0.2271
     31 O         137.4511  144.9016  162.8070 O.2     1  UNL1       -0.2748
     32 N         139.7326  144.8085  161.6940 N.am    1  UNL1       -0.2763
     33 C         139.6112  146.3036  161.7035 C.3     1  UNL1        0.1149
     34 C         140.9944  144.2618  161.0950 C.3     1  UNL1        0.1107
     35 C         141.4113  142.8293  160.9388 C.3     1  UNL1        0.0939
@<TRIPOS>BOND
     1    21    22    1
     2    22    23    2
     3    22     1    1
     4     1     2    2
     5     2     3    1
     6     3     4    1
     7     4     5   ar
     8     5     6   ar
     9     6     7    1
    10     6     8   ar
    11     8     9   ar
    12     9    10   ar
    13    10    11    1
    14    11    12    1
    15    13    12    1
    16    13    14    1
    17    14    24    1
    18    24    25    1
    19    25    26    1
    20    26    27    1
    21    27    28    1
    22    28    29    1
    23    29    30    1
    24    30    31    2
    25    30    32   am
    26    32    33    1
    27    32    34    1
    28    34    35    1
    29    14    15    1
    30    15    16   ar
    31    16    17   ar
    32    17    18   ar
    33    18    19   ar
    34    19    20   ar
    35    14     1    1
    36    35    27    1
    37    20    15   ar
    38    13     3    1
    39    10     4   ar
@<TRIPOS>MOLECULE
*****
 35 39 0 0 0
SMALL
GASTEIGER

@<TRIPOS>ATOM
      1 C         143.8439  141.7329  164.2467 C.2     1  UNL1        0.1157
      2 N         143.8898  142.2385  165.6582 N.2     1  UNL1       -0.1790
      3 N         142.8330  141.5192  166.4427 N.pl3   1  UNL1       -0.2060
      4 C         142.4168  141.6068  167.8813 C.ar    1  UNL1        0.1052
      5 C         143.1159  142.5570  168.8077 C.ar    1  UNL1        0.0490
      6 C         142.6998  142.6445  170.2462 C.ar    1  UNL1        0.1416
      7 F         143.3988  143.5947  171.1727 F       1  UNL1       -0.2041
      8 C         141.5846  141.7818  170.7581 C.ar    1  UNL1        0.0328
      9 C         140.8855  140.8316  169.8317 C.ar    1  UNL1        0.0405
     10 C         141.3017  140.7441  168.3932 C.ar    1  UNL1        0.1537
     11 O         140.6026  139.7939  167.4667 O.3     1  UNL1       -0.4723
     12 C         141.0187  139.7064  166.0282 C.3     1  UNL1        0.2277
     13 C         142.1339  140.5690  165.5163 C.3     1  UNL1        0.1488
     14 C         142.7587  140.7011  164.1590 C.3     1  UNL1        0.0806
     15 C         141.7605  139.6510  163.7706 C.ar    1  UNL1       -0.0157
     16 C         142.0611  138.2024  164.0182 C.ar    1  UNL1       -0.0039
     17 C         141.0628  137.1522  163.6298 C.ar    1  UNL1       -0.0003
     18 C         139.7641  137.5507  162.9938 C.ar    1  UNL1       -0.0000
     19 C         139.4635  138.9992  162.7462 C.ar    1  UNL1       -0.0003
     20 C         140.4618  140.0494  163.1346 C.ar    1  UNL1       -0.0039
     21 C         144.2158  143.1635  162.1101 C.3     1  UNL1        0.0786
     22 C         144.7281  142.1804  163.1206 C.2     1  UNL1        0.1887
     23 O         146.1245  141.6449  163.0051 O.2     1  UNL1       -0.2900
     24 C         143.1748  140.6135  162.7205 C.3     1  UNL1        0.0130
     25 C         143.8793  139.3888  162.2167 C.3     1  UNL1        0.0181
     26 C         144.0197  139.1580  160.7413 C.3     1  UNL1        0.0722
     27 N         142.8806  139.4800  159.8200 N.3     1  UNL1       -0.2708
     28 C         141.7008  138.5569  159.8964 C.3     1  UNL1        0.0818
     29 C         140.4210  138.6084  159.1158 C.3     1  UNL1        0.1026
     30 C         140.0048  139.5957  158.0660 C.2     1  UNL1        0.2271
     31 O         138.6484  139.3739  157.4652 O.2     1  UNL1       -0.2748
     32 N         140.7658  140.7753  157.5375 N.am    1  UNL1       -0.2763
     33 C         140.0697  141.5773  156.4781 C.3     1  UNL1        0.1149
     34 C         142.1308  141.2591  157.9283 C.3     1  UNL1        0.1107
     35 C         143.0720  140.6826  158.9441 C.3     1  UNL1        0.0939
@<TRIPOS>BOND
     1    21    22    1
     2    22    23    2
     3    22     1    1
     4     1     2    2
     5     2     3    1
     6     3     4    1
     7     4     5   ar
     8     5     6   ar
     9     6     7    1
    10     6     8   ar
    11     8     9   ar
    12     9    10   ar
    13    10    11    1
    14    11    12    1
    15    13    12    1
    16    13    14    1
    17    14    24    1
    18    24    25    1
    19    25    26    1
    20    26    27    1
    21    27    28    1
    22    28    29    1
    23    29    30    1
    24    30    31    2
    25    30    32   am
    26    32    33    1
    27    32    34    1
    28    34    35    1
    29    14    15    1
    30    15    16   ar
    31    16    17   ar
    32    17    18   ar
    33    18    19   ar
    34    19    20   ar
    35    14     1    1
    36    35    27    1
    37    20    15   ar
    38    13     3    1
    39    10     4   ar
