@<TRIPOS>MOLECULE
*****
 24 27 0 0 0
SMALL
GASTEIGER

@<TRIPOS>ATOM
      1 C         140.9196  138.5124  162.2516 C.ar    1  UNL1        0.1917
      2 N         139.7417  137.6119  162.0241 N.ar    1  UNL1       -0.1268
      3 N         138.9395  137.5694  163.2908 N.ar    1  UNL1       -0.1315
      4 C         139.6215  138.4436  164.3011 C.ar    1  UNL1        0.1636
      5 N         140.8453  139.0265  163.6588 N.ar    1  UNL1       -0.2939
      6 C         141.7338  139.9499  164.4383 C.3     1  UNL1        0.1302
      7 C         141.3986  140.2905  165.8601 C.3     1  UNL1        0.1186
      8 N         140.1748  139.7077  166.5024 N.am    1  UNL1       -0.2670
      9 C         139.8395  140.0483  167.9243 C.2     1  UNL1        0.2494
     10 O         138.6157  139.4655  168.5666 O.2     1  UNL1       -0.2699
     11 C         139.2862  138.7842  165.7229 C.3     1  UNL1        0.1599
     12 C         140.7281  140.9718  168.7037 C.ar    1  UNL1        0.0537
     13 C         141.9982  140.4548  169.3117 C.ar    1  UNL1        0.0068
     14 C         142.8868  141.3783  170.0912 C.ar    1  UNL1        0.0298
     15 C         142.5052  142.8188  170.2627 C.ar    1  UNL1        0.1401
     16 F         143.3938  143.7423  171.0422 F       1  UNL1       -0.2042
     17 C         141.2352  143.3358  169.6548 C.ar    1  UNL1        0.0298
     18 C         140.3466  142.4123  168.8753 C.ar    1  UNL1        0.0068
     19 C         143.4656  140.6470  158.1476 C.3     1  UNL1        0.0744
     20 C         143.1550  139.8224  159.3616 C.ar    1  UNL1        0.1481
     21 N         144.0929  138.8722  160.0455 N.ar    1  UNL1       -0.1929
     22 S         143.3695  138.2659  161.2113 S.2     1  UNL1        0.0369
     23 C         141.9848  138.8413  161.2480 C.ar    1  UNL1        0.1652
     24 N         141.8522  139.8033  160.1047 N.ar    1  UNL1       -0.2190
@<TRIPOS>BOND
     1    19    20    1
     2    20    21   ar
     3    21    22   ar
     4    22    23   ar
     5    23     1    1
     6     1     2   ar
     7     2     3   ar
     8     3     4   ar
     9     4     5   ar
    10     5     6    1
    11     6     7    1
    12     7     8    1
    13     8     9   am
    14     9    10    2
    15     9    12    1
    16    12    13   ar
    17    13    14   ar
    18    14    15   ar
    19    15    16    1
    20    15    17   ar
    21    17    18   ar
    22     8    11    1
    23    23    24   ar
    24    24    20   ar
    25     5     1   ar
    26    18    12   ar
    27    11     4    1
@<TRIPOS>MOLECULE
*****
 24 27 0 0 0
SMALL
GASTEIGER

@<TRIPOS>ATOM
      1 C         142.5327  144.1185  161.8945 C.ar    1  UNL1        0.1917
      2 N         143.9978  144.3718  162.0929 N.ar    1  UNL1       -0.1268
      3 N         144.4594  143.5387  163.2517 N.ar    1  UNL1       -0.1315
      4 C         143.2797  142.7704  163.7694 C.ar    1  UNL1        0.1636
      5 N         142.0889  143.1287  162.9306 N.ar    1  UNL1       -0.2939
      6 C         140.7544  142.5075  163.2186 C.3     1  UNL1        0.1302
      7 C         140.6106  141.5279  164.3454 C.3     1  UNL1        0.1186
      8 N         141.8014  141.1696  165.1842 N.am    1  UNL1       -0.2670
      9 C         141.6576  140.1899  166.3111 C.2     1  UNL1        0.2494
     10 O         142.8484  139.8316  167.1498 O.2     1  UNL1       -0.2699
     11 C         143.1360  141.7908  164.8962 C.3     1  UNL1        0.1599
     12 C         140.3231  139.5687  166.5991 C.ar    1  UNL1        0.0537
     13 C         139.5604  139.9660  167.8281 C.ar    1  UNL1        0.0068
     14 C         138.2258  139.3447  168.1161 C.ar    1  UNL1        0.0298
     15 C         137.6539  138.3262  167.1750 C.ar    1  UNL1        0.1401
     16 F         136.3193  137.7050  167.4631 F       1  UNL1       -0.2042
     17 C         138.4166  137.9289  165.9460 C.ar    1  UNL1        0.0298
     18 C         139.7511  138.5502  165.6580 C.ar    1  UNL1        0.0068
     19 C         140.7192  145.8184  157.2359 C.3     1  UNL1        0.0744
     20 C         140.8303  145.5262  158.7030 C.ar    1  UNL1        0.1481
     21 N         139.8237  145.8913  159.7535 N.ar    1  UNL1       -0.1929
     22 S         140.3389  145.4083  161.0768 S.2     1  UNL1        0.0369
     23 C         141.6639  144.7448  160.8443 C.ar    1  UNL1        0.1652
     24 N         141.9677  144.8177  159.3772 N.ar    1  UNL1       -0.2190
@<TRIPOS>BOND
     1    19    20    1
     2    20    21   ar
     3    21    22   ar
     4    22    23   ar
     5    23     1    1
     6     1     2   ar
     7     2     3   ar
     8     3     4   ar
     9     4     5   ar
    10     5     6    1
    11     6     7    1
    12     7     8    1
    13     8     9   am
    14     9    10    2
    15     9    12    1
    16    12    13   ar
    17    13    14   ar
    18    14    15   ar
    19    15    16    1
    20    15    17   ar
    21    17    18   ar
    22     8    11    1
    23    23    24   ar
    24    24    20   ar
    25     5     1   ar
    26    18    12   ar
    27    11     4    1
@<TRIPOS>MOLECULE
*****
 24 27 0 0 0
SMALL
GASTEIGER

@<TRIPOS>ATOM
      1 C         138.7724  142.2515  161.8831 C.ar    1  UNL1        0.1917
      2 N         137.7642  141.1946  161.5417 N.ar    1  UNL1       -0.1268
      3 N         137.5530  140.3449  162.7596 N.ar    1  UNL1       -0.1315
      4 C         138.4306  140.8767  163.8537 C.ar    1  UNL1        0.1636
      5 N         139.1842  142.0551  163.3120 N.ar    1  UNL1       -0.2939
      6 C         140.1481  142.7969  164.1898 C.3     1  UNL1        0.1302
      7 C         140.3584  142.3604  165.6093 C.3     1  UNL1        0.1186
      8 N         139.6048  141.1820  166.1511 N.am    1  UNL1       -0.2670
      9 C         139.8151  140.7455  167.5707 C.2     1  UNL1        0.2494
     10 O         139.0615  139.5671  168.1125 O.2     1  UNL1       -0.2699
     11 C         138.6409  140.4402  165.2733 C.3     1  UNL1        0.1599
     12 C         140.7789  141.4874  168.4485 C.ar    1  UNL1        0.0537
     13 C         140.3512  142.7535  169.1297 C.ar    1  UNL1        0.0068
     14 C         141.3152  143.4953  170.0076 C.ar    1  UNL1        0.0298
     15 C         142.7068  142.9711  170.2041 C.ar    1  UNL1        0.1401
     16 F         143.6706  143.7129  171.0819 F       1  UNL1       -0.2042
     17 C         143.1345  141.7050  169.5229 C.ar    1  UNL1        0.0298
     18 C         142.1706  140.9631  168.6451 C.ar    1  UNL1        0.0068
     19 C         140.3360  144.7923  157.5264 C.3     1  UNL1        0.0744
     20 C         139.9983  144.4856  158.9554 C.ar    1  UNL1        0.1481
     21 N         140.1221  145.4314  160.1131 N.ar    1  UNL1       -0.1929
     22 S         139.6778  144.7095  161.3507 S.2     1  UNL1        0.0369
     23 C         139.2796  143.3178  160.9579 C.ar    1  UNL1        0.1652
     24 N         139.4777  143.1794  159.4775 N.ar    1  UNL1       -0.2190
@<TRIPOS>BOND
     1    19    20    1
     2    20    21   ar
     3    21    22   ar
     4    22    23   ar
     5    23     1    1
     6     1     2   ar
     7     2     3   ar
     8     3     4   ar
     9     4     5   ar
    10     5     6    1
    11     6     7    1
    12     7     8    1
    13     8     9   am
    14     9    10    2
    15     9    12    1
    16    12    13   ar
    17    13    14   ar
    18    14    15   ar
    19    15    16    1
    20    15    17   ar
    21    17    18   ar
    22     8    11    1
    23    23    24   ar
    24    24    20   ar
    25     5     1   ar
    26    18    12   ar
    27    11     4    1
@<TRIPOS>MOLECULE
*****
 24 27 0 0 0
SMALL
GASTEIGER

@<TRIPOS>ATOM
      1 C         143.2909  141.3627  161.8659 C.ar    1  UNL1        0.1917
      2 N         144.1711  140.2050  161.4984 N.ar    1  UNL1       -0.1268
      3 N         144.3715  139.3671  162.7263 N.ar    1  UNL1       -0.1315
      4 C         143.6153  140.0069  163.8526 C.ar    1  UNL1        0.1636
      5 N         142.9474  141.2403  163.3209 N.ar    1  UNL1       -0.2939
      6 C         142.1127  142.0925  164.2303 C.3     1  UNL1        0.1302
      7 C         141.9459  141.7114  165.6714 C.3     1  UNL1        0.1186
      8 N         142.6138  140.4780  166.2031 N.am    1  UNL1       -0.2670
      9 C         142.4470  140.0969  167.6443 C.2     1  UNL1        0.2494
     10 O         143.1149  138.8636  168.1761 O.2     1  UNL1       -0.2699
     11 C         143.4485  139.6258  165.2938 C.3     1  UNL1        0.1599
     12 C         141.6124  140.9491  168.5537 C.ar    1  UNL1        0.0537
     13 C         140.2666  140.4667  169.0077 C.ar    1  UNL1        0.0068
     14 C         139.4319  141.3190  169.9171 C.ar    1  UNL1        0.0298
     15 C         139.9430  142.6536  170.3725 C.ar    1  UNL1        0.1401
     16 F         139.1084  143.5058  171.2819 F       1  UNL1       -0.2042
     17 C         141.2888  143.1361  169.9185 C.ar    1  UNL1        0.0298
     18 C         142.1235  142.2838  169.0092 C.ar    1  UNL1        0.0068
     19 C         140.4800  145.2932  159.7371 C.3     1  UNL1        0.0744
     20 C         141.5423  144.2583  159.9623 C.ar    1  UNL1        0.1481
     21 N         142.7210  143.9965  159.0723 N.ar    1  UNL1       -0.1929
     22 S         143.5195  142.8799  159.6771 S.2     1  UNL1        0.0369
     23 C         142.8343  142.4516  160.9408 C.ar    1  UNL1        0.1652
     24 N         141.6123  143.3035  161.1171 N.ar    1  UNL1       -0.2190
@<TRIPOS>BOND
     1    19    20    1
     2    20    21   ar
     3    21    22   ar
     4    22    23   ar
     5    23     1    1
     6     1     2   ar
     7     2     3   ar
     8     3     4   ar
     9     4     5   ar
    10     5     6    1
    11     6     7    1
    12     7     8    1
    13     8     9   am
    14     9    10    2
    15     9    12    1
    16    12    13   ar
    17    13    14   ar
    18    14    15   ar
    19    15    16    1
    20    15    17   ar
    21    17    18   ar
    22     8    11    1
    23    23    24   ar
    24    24    20   ar
    25     5     1   ar
    26    18    12   ar
    27    11     4    1
@<TRIPOS>MOLECULE
*****
 24 27 0 0 0
SMALL
GASTEIGER

@<TRIPOS>ATOM
      1 C         139.8918  140.3143  168.4451 C.ar    1  UNL1        0.1917
      2 N         138.6317  139.6995  168.9784 N.ar    1  UNL1       -0.1268
      3 N         137.9674  138.9575  167.8568 N.ar    1  UNL1       -0.1315
      4 C         138.8168  139.1136  166.6304 C.ar    1  UNL1        0.1636
      5 N         140.0062  139.9522  166.9940 N.ar    1  UNL1       -0.2939
      6 C         141.0396  140.2777  165.9567 C.3     1  UNL1        0.1302
      7 C         140.8838  139.7646  164.5559 C.3     1  UNL1        0.1186
      8 N         139.6944  138.9261  164.1923 N.am    1  UNL1       -0.2670
      9 C         139.5386  138.4130  162.7913 C.2     1  UNL1        0.2494
     10 O         138.3492  137.5744  162.4277 O.2     1  UNL1       -0.2699
     11 C         138.6609  138.6005  165.2295 C.3     1  UNL1        0.1599
     12 C         140.5721  138.7385  161.7541 C.ar    1  UNL1        0.0537
     13 C         140.4195  139.9635  160.9019 C.ar    1  UNL1        0.0068
     14 C         141.4531  140.2890  159.8647 C.ar    1  UNL1        0.0298
     15 C         142.6391  139.3895  159.6796 C.ar    1  UNL1        0.1401
     16 F         143.6726  139.7150  158.6424 F       1  UNL1       -0.2042
     17 C         142.7916  138.1646  160.5318 C.ar    1  UNL1        0.0298
     18 C         141.7582  137.8390  161.5690 C.ar    1  UNL1        0.0068
     19 C         144.3488  142.6545  170.0386 C.3     1  UNL1        0.0744
     20 C         142.9150  142.2209  169.9584 C.ar    1  UNL1        0.1481
     21 N         141.8172  142.6272  170.8964 N.ar    1  UNL1       -0.1929
     22 S         140.5511  141.9623  170.4437 S.2     1  UNL1        0.0369
     23 C         140.8664  141.1453  169.2259 C.ar    1  UNL1        0.1652
     24 N         142.3273  141.3051  168.9259 N.ar    1  UNL1       -0.2190
@<TRIPOS>BOND
     1    19    20    1
     2    20    21   ar
     3    21    22   ar
     4    22    23   ar
     5    23     1    1
     6     1     2   ar
     7     2     3   ar
     8     3     4   ar
     9     4     5   ar
    10     5     6    1
    11     6     7    1
    12     7     8    1
    13     8     9   am
    14     9    10    2
    15     9    12    1
    16    12    13   ar
    17    13    14   ar
    18    14    15   ar
    19    15    16    1
    20    15    17   ar
    21    17    18   ar
    22     8    11    1
    23    23    24   ar
    24    24    20   ar
    25     5     1   ar
    26    18    12   ar
    27    11     4    1
@<TRIPOS>MOLECULE
*****
 24 27 0 0 0
SMALL
GASTEIGER

@<TRIPOS>ATOM
      1 C         139.8472  138.7450  157.9565 C.ar    1  UNL1        0.1917
      2 N         138.8131  139.3650  157.0641 N.ar    1  UNL1       -0.1268
      3 N         137.8877  140.1766  157.9214 N.ar    1  UNL1       -0.1315
      4 C         138.3497  140.0581  159.3435 C.ar    1  UNL1        0.1636
      5 N         139.5608  139.1733  159.3652 N.ar    1  UNL1       -0.2939
      6 C         140.2463  138.8719  160.6649 C.3     1  UNL1        0.1302
      7 C         139.7207  139.4554  161.9429 C.3     1  UNL1        0.1186
      8 N         138.5097  140.3402  161.9212 N.am    1  UNL1       -0.2670
      9 C         137.9841  140.9236  163.1993 C.2     1  UNL1        0.2494
     10 O         136.7731  141.8084  163.1776 O.2     1  UNL1       -0.2699
     11 C         137.8242  140.6415  160.6215 C.3     1  UNL1        0.1599
     12 C         138.6696  140.6223  164.4990 C.ar    1  UNL1        0.0537
     13 C         139.8347  141.4560  164.9434 C.ar    1  UNL1        0.0068
     14 C         140.5202  141.1546  166.2432 C.ar    1  UNL1        0.0298
     15 C         140.0406  140.0195  167.0984 C.ar    1  UNL1        0.1401
     16 F         140.7262  139.7182  168.3981 F       1  UNL1       -0.2042
     17 C         138.8756  139.1858  166.6540 C.ar    1  UNL1        0.0298
     18 C         138.1901  139.4871  165.3544 C.ar    1  UNL1        0.0068
     19 C         142.5772  134.9337  155.5270 C.3     1  UNL1        0.0744
     20 C         142.2253  136.1013  156.4005 C.ar    1  UNL1        0.1481
     21 N         143.1726  136.8601  157.2820 N.ar    1  UNL1       -0.1929
     22 S         142.3969  137.9428  157.9721 S.2     1  UNL1        0.0369
     23 C         140.9704  137.8531  157.5172 C.ar    1  UNL1        0.1652
     24 N         140.8643  136.7150  156.5459 N.ar    1  UNL1       -0.2190
@<TRIPOS>BOND
     1    19    20    1
     2    20    21   ar
     3    21    22   ar
     4    22    23   ar
     5    23     1    1
     6     1     2   ar
     7     2     3   ar
     8     3     4   ar
     9     4     5   ar
    10     5     6    1
    11     6     7    1
    12     7     8    1
    13     8     9   am
    14     9    10    2
    15     9    12    1
    16    12    13   ar
    17    13    14   ar
    18    14    15   ar
    19    15    16    1
    20    15    17   ar
    21    17    18   ar
    22     8    11    1
    23    23    24   ar
    24    24    20   ar
    25     5     1   ar
    26    18    12   ar
    27    11     4    1
@<TRIPOS>MOLECULE
*****
 24 27 0 0 0
SMALL
GASTEIGER

@<TRIPOS>ATOM
      1 C         141.2296  139.4163  161.5197 C.ar    1  UNL1        0.1917
      2 N         142.2438  138.3717  161.1591 N.ar    1  UNL1       -0.1268
      3 N         142.9447  137.9523  162.4172 N.ar    1  UNL1       -0.1315
      4 C         142.3636  138.7377  163.5554 C.ar    1  UNL1        0.1636
      5 N         141.3036  139.6425  163.0007 N.ar    1  UNL1       -0.2939
      6 C         140.5427  140.5555  163.9158 C.3     1  UNL1        0.1302
      7 C         140.8419  140.5637  165.3856 C.3     1  UNL1        0.1186
      8 N         141.9019  139.6589  165.9403 N.am    1  UNL1       -0.2670
      9 C         142.2010  139.6671  167.4103 C.2     1  UNL1        0.2494
     10 O         143.2610  138.7623  167.9650 O.2     1  UNL1       -0.2699
     11 C         142.6627  138.7459  165.0252 C.3     1  UNL1        0.1599
     12 C         141.4402  140.5801  168.3254 C.ar    1  UNL1        0.0537
     13 C         140.1922  140.0948  169.0013 C.ar    1  UNL1        0.0068
     14 C         139.4313  141.0079  169.9165 C.ar    1  UNL1        0.0298
     15 C         139.9185  142.4062  170.1556 C.ar    1  UNL1        0.1401
     16 F         139.1576  143.3192  171.0707 F       1  UNL1       -0.2042
     17 C         141.1665  142.8916  169.4797 C.ar    1  UNL1        0.0298
     18 C         141.9273  141.9786  168.5646 C.ar    1  UNL1        0.0068
     19 C         139.0572  143.0877  158.4080 C.3     1  UNL1        0.0744
     20 C         139.3053  141.8000  159.1364 C.ar    1  UNL1        0.1481
     21 N         138.4532  140.5677  159.0638 N.ar    1  UNL1       -0.1929
     22 S         139.0704  139.5248  159.9478 S.2     1  UNL1        0.0369
     23 C         140.3038  140.1125  160.5667 C.ar    1  UNL1        0.1652
     24 N         140.4490  141.5187  160.0652 N.ar    1  UNL1       -0.2190
@<TRIPOS>BOND
     1    19    20    1
     2    20    21   ar
     3    21    22   ar
     4    22    23   ar
     5    23     1    1
     6     1     2   ar
     7     2     3   ar
     8     3     4   ar
     9     4     5   ar
    10     5     6    1
    11     6     7    1
    12     7     8    1
    13     8     9   am
    14     9    10    2
    15     9    12    1
    16    12    13   ar
    17    13    14   ar
    18    14    15   ar
    19    15    16    1
    20    15    17   ar
    21    17    18   ar
    22     8    11    1
    23    23    24   ar
    24    24    20   ar
    25     5     1   ar
    26    18    12   ar
    27    11     4    1
@<TRIPOS>MOLECULE
*****
 24 27 0 0 0
SMALL
GASTEIGER

@<TRIPOS>ATOM
      1 C         140.3025  140.2594  167.7332 C.ar    1  UNL1        0.1917
      2 N         139.1439  139.3648  168.0608 N.ar    1  UNL1       -0.1268
      3 N         138.1980  139.3866  166.8969 N.ar    1  UNL1       -0.1315
      4 C         138.7720  140.2946  165.8499 C.ar    1  UNL1        0.1636
      5 N         140.0727  140.8341  166.3668 N.ar    1  UNL1       -0.2939
      6 C         140.8797  141.7788  165.5265 C.3     1  UNL1        0.1302
      7 C         140.3860  142.1841  164.1694 C.3     1  UNL1        0.1186
      8 N         139.0853  141.6447  163.6525 N.am    1  UNL1       -0.2670
      9 C         138.5916  142.0501  162.2952 C.2     1  UNL1        0.2494
     10 O         137.2909  141.5106  161.7784 O.2     1  UNL1       -0.2699
     11 C         138.2783  140.7000  164.4928 C.3     1  UNL1        0.1599
     12 C         139.3987  142.9948  161.4550 C.ar    1  UNL1        0.0537
     13 C         140.2196  142.4699  160.3145 C.ar    1  UNL1        0.0068
     14 C         141.0266  143.4148  159.4742 C.ar    1  UNL1        0.0298
     15 C         141.0128  144.8843  159.7744 C.ar    1  UNL1        0.1401
     16 F         141.8198  145.8290  158.9341 F       1  UNL1       -0.2042
     17 C         140.1919  145.4092  160.9148 C.ar    1  UNL1        0.0298
     18 C         139.3848  144.4644  161.7551 C.ar    1  UNL1        0.0068
     19 C         144.3769  142.6738  170.0680 C.3     1  UNL1        0.0744
     20 C         143.3565  141.6413  169.6900 C.ar    1  UNL1        0.1481
     21 N         143.2462  140.2595  170.2631 N.ar    1  UNL1       -0.1929
     22 S         142.0887  139.5737  169.5998 S.2     1  UNL1        0.0369
     23 C         141.4837  140.5316  168.6168 C.ar    1  UNL1        0.1652
     24 N         142.2672  141.8095  168.6725 N.ar    1  UNL1       -0.2190
@<TRIPOS>BOND
     1    19    20    1
     2    20    21   ar
     3    21    22   ar
     4    22    23   ar
     5    23     1    1
     6     1     2   ar
     7     2     3   ar
     8     3     4   ar
     9     4     5   ar
    10     5     6    1
    11     6     7    1
    12     7     8    1
    13     8     9   am
    14     9    10    2
    15     9    12    1
    16    12    13   ar
    17    13    14   ar
    18    14    15   ar
    19    15    16    1
    20    15    17   ar
    21    17    18   ar
    22     8    11    1
    23    23    24   ar
    24    24    20   ar
    25     5     1   ar
    26    18    12   ar
    27    11     4    1
@<TRIPOS>MOLECULE
*****
 24 27 0 0 0
SMALL
GASTEIGER

@<TRIPOS>ATOM
      1 C         140.8266  138.3678  157.4857 C.ar    1  UNL1        0.1917
      2 N         142.2670  138.3172  157.0704 N.ar    1  UNL1       -0.1268
      3 N         143.1078  138.3176  158.3126 N.ar    1  UNL1       -0.1315
      4 C         142.1870  138.3684  159.4956 C.ar    1  UNL1        0.1636
      5 N         140.7771  138.3994  158.9846 N.ar    1  UNL1       -0.2939
      6 C         139.6304  138.4525  159.9500 C.3     1  UNL1        0.1302
      7 C         139.8936  138.4745  161.4266 C.3     1  UNL1        0.1186
      8 N         141.3035  138.4435  161.9376 N.am    1  UNL1       -0.2670
      9 C         141.5667  138.4655  163.4142 C.2     1  UNL1        0.2494
     10 O         142.9766  138.4344  163.9253 O.2     1  UNL1       -0.2699
     11 C         142.4502  138.3904  160.9721 C.3     1  UNL1        0.1599
     12 C         140.4200  138.5185  164.3797 C.ar    1  UNL1        0.0537
     13 C         139.6688  137.2660  164.7215 C.ar    1  UNL1        0.0068
     14 C         138.5220  137.3191  165.6871 C.ar    1  UNL1        0.0298
     15 C         138.1265  138.6246  166.3107 C.ar    1  UNL1        0.1401
     16 F         136.9798  138.6777  167.2762 F       1  UNL1       -0.2042
     17 C         138.8778  139.8772  165.9689 C.ar    1  UNL1        0.0298
     18 C         140.0245  139.8241  165.0035 C.ar    1  UNL1        0.0068
     19 C         136.5261  139.9498  154.8618 C.3     1  UNL1        0.0744
     20 C         137.6666  139.1111  155.3579 C.ar    1  UNL1        0.1481
     21 N         137.9781  137.7065  154.9333 N.ar    1  UNL1       -0.1929
     22 S         139.1998  137.2572  155.6788 S.2     1  UNL1        0.0369
     23 C         139.6433  138.3839  156.5640 C.ar    1  UNL1        0.1652
     24 N         138.6957  139.5297  156.3657 N.ar    1  UNL1       -0.2190
@<TRIPOS>BOND
     1    19    20    1
     2    20    21   ar
     3    21    22   ar
     4    22    23   ar
     5    23     1    1
     6     1     2   ar
     7     2     3   ar
     8     3     4   ar
     9     4     5   ar
    10     5     6    1
    11     6     7    1
    12     7     8    1
    13     8     9   am
    14     9    10    2
    15     9    12    1
    16    12    13   ar
    17    13    14   ar
    18    14    15   ar
    19    15    16    1
    20    15    17   ar
    21    17    18   ar
    22     8    11    1
    23    23    24   ar
    24    24    20   ar
    25     5     1   ar
    26    18    12   ar
    27    11     4    1
