@<TRIPOS>MOLECULE
*****
 27 30 0 0 0
SMALL
GASTEIGER

@<TRIPOS>ATOM
      1 C         141.4382  142.0844  166.2664 C.2     1  UNL1        0.0020
      2 C         140.9530  142.5186  167.6178 C.2     1  UNL1        0.0130
      3 C         141.2405  141.6753  168.8245 C.3     1  UNL1        0.1542
      4 C         140.4678  142.9527  168.9691 C.3     1  UNL1        0.0614
      5 C         139.9826  143.3868  170.3204 C.3     1  UNL1        0.0725
      6 N         140.2702  142.5435  171.5271 N.3     1  UNL1       -0.2972
      7 C         141.0429  141.2661  171.3825 C.3     1  UNL1        0.0725
      8 C         141.5281  140.8319  170.0312 C.3     1  UNL1        0.0614
      9 O         142.0133  140.3977  168.6798 O.3     1  UNL1       -0.4785
     10 C         142.4985  139.9636  167.3285 C.ar    1  UNL1        0.1386
     11 C         143.2712  138.6861  167.1838 C.ar    1  UNL1        0.0369
     12 C         143.7564  138.2519  165.8325 C.ar    1  UNL1        0.0031
     13 C         143.4688  139.0953  164.6258 C.ar    1  UNL1        0.0002
     14 C         142.6961  140.3727  164.7704 C.ar    1  UNL1        0.0030
     15 C         142.2109  140.8069  166.1218 C.ar    1  UNL1        0.0338
     16 H         139.3687  142.2977  171.9361 H       1  UNL1        0.1233
     17 C         140.5755  144.6143  162.6463 C.ar    1  UNL1        0.0536
     18 C         141.9058  144.7151  163.3320 C.ar    1  UNL1        0.0045
     19 C         142.1933  143.8718  164.5387 C.ar    1  UNL1        0.0001
     20 C         141.1506  142.9277  165.0597 C.ar    1  UNL1       -0.0001
     21 C         139.8203  142.8269  164.3740 C.ar    1  UNL1        0.0001
     22 C         139.5328  143.6702  163.1673 C.ar    1  UNL1        0.0045
     23 C         140.3393  145.7911  158.8636 C.3     1  UNL1        0.1152
     24 N         140.6269  144.9478  160.0703 N.am    1  UNL1       -0.2726
     25 C         141.2533  143.5946  159.9075 C.3     1  UNL1        0.1152
     26 C         140.2880  145.4576  161.4396 C.2     1  UNL1        0.2491
     27 O         139.6615  146.8109  161.6023 O.2     1  UNL1       -0.2699
@<TRIPOS>BOND
     1    23    24    1
     2    24    25    1
     3    24    26   am
     4    26    27    2
     5    26    17    1
     6    17    18   ar
     7    18    19   ar
     8    19    20   ar
     9    20     1    1
    10     1     2    2
    11     2     3    1
    12     3     4    1
    13     4     5    1
    14     5     6    1
    15     6     7    1
    16     7     8    1
    17     3     9    1
    18     9    10    1
    19    10    11   ar
    20    11    12   ar
    21    12    13   ar
    22    13    14   ar
    23    14    15   ar
    24    20    21   ar
    25    21    22   ar
    26    22    17   ar
    27    15     1    1
    28     8     3    1
    29    15    10   ar
    30     6    16    1
@<TRIPOS>MOLECULE
*****
 27 30 0 0 0
SMALL
GASTEIGER

@<TRIPOS>ATOM
      1 C         141.4990  140.9516  166.3142 C.2     1  UNL1        0.0020
      2 C         142.1204  141.5745  167.5291 C.2     1  UNL1        0.0130
      3 C         141.4808  141.3956  168.8741 C.3     1  UNL1        0.1542
      4 C         142.7418  142.1974  168.7440 C.3     1  UNL1        0.0614
      5 C         143.3631  142.8202  169.9589 C.3     1  UNL1        0.0725
      6 N         142.7235  142.6413  171.3038 N.3     1  UNL1       -0.2972
      7 C         141.4625  141.8395  171.4339 C.3     1  UNL1        0.0725
      8 C         140.8411  141.2166  170.2190 C.3     1  UNL1        0.0614
      9 O         140.2197  140.5937  169.0041 O.3     1  UNL1       -0.4785
     10 C         139.5984  139.9709  167.7892 C.ar    1  UNL1        0.1386
     11 C         138.3373  139.1690  167.9193 C.ar    1  UNL1        0.0369
     12 C         137.7159  138.5462  166.7044 C.ar    1  UNL1        0.0031
     13 C         138.3556  138.7251  165.3595 C.ar    1  UNL1        0.0002
     14 C         139.6166  139.5269  165.2294 C.ar    1  UNL1        0.0030
     15 C         140.2380  140.1498  166.4443 C.ar    1  UNL1        0.0338
     16 H         142.5165  143.5751  171.6580 H       1  UNL1        0.1233
     17 C         143.4179  141.4884  162.2795 C.ar    1  UNL1        0.0536
     18 C         143.8909  140.3993  163.1960 C.ar    1  UNL1        0.0045
     19 C         143.2513  140.2204  164.5409 C.ar    1  UNL1        0.0001
     20 C         142.1386  141.1305  164.9693 C.ar    1  UNL1       -0.0001
     21 C         141.6656  142.2197  164.0528 C.ar    1  UNL1        0.0001
     22 C         142.3052  142.3987  162.7078 C.ar    1  UNL1        0.0045
     23 C         144.1981  141.0634  158.4116 C.3     1  UNL1        0.1152
     24 N         143.5584  140.8844  159.7565 N.am    1  UNL1       -0.2726
     25 C         142.4196  139.9225  159.9233 C.3     1  UNL1        0.1152
     26 C         144.0576  141.6674  160.9345 C.2     1  UNL1        0.2491
     27 O         145.1965  142.6293  160.7677 O.2     1  UNL1       -0.2699
@<TRIPOS>BOND
     1    23    24    1
     2    24    25    1
     3    24    26   am
     4    26    27    2
     5    26    17    1
     6    17    18   ar
     7    18    19   ar
     8    19    20   ar
     9    20     1    1
    10     1     2    2
    11     2     3    1
    12     3     4    1
    13     4     5    1
    14     5     6    1
    15     6     7    1
    16     7     8    1
    17     3     9    1
    18     9    10    1
    19    10    11   ar
    20    11    12   ar
    21    12    13   ar
    22    13    14   ar
    23    14    15   ar
    24    20    21   ar
    25    21    22   ar
    26    22    17   ar
    27    15     1    1
    28     8     3    1
    29    15    10   ar
    30     6    16    1
@<TRIPOS>MOLECULE
*****
 27 30 0 0 0
SMALL
GASTEIGER

@<TRIPOS>ATOM
      1 C         141.9378  142.4123  163.3098 C.2     1  UNL1        0.0020
      2 C         142.6106  141.2850  162.5840 C.2     1  UNL1        0.0130
      3 C         142.6878  141.2976  161.0860 C.3     1  UNL1        0.1542
      4 C         143.2834  140.1579  161.8582 C.3     1  UNL1        0.0614
      5 C         143.9562  139.0307  161.1324 C.3     1  UNL1        0.0725
      6 N         144.0334  139.0432  159.6345 N.3     1  UNL1       -0.2972
      7 C         143.4378  140.1830  158.8623 C.3     1  UNL1        0.0725
      8 C         142.7650  141.3101  159.5881 C.3     1  UNL1        0.0614
      9 O         142.0922  142.4374  160.3139 O.3     1  UNL1       -0.4785
     10 C         141.4194  143.5645  161.0397 C.ar    1  UNL1        0.1386
     11 C         140.8238  144.7043  160.2675 C.ar    1  UNL1        0.0369
     12 C         140.1510  145.8315  160.9933 C.ar    1  UNL1        0.0031
     13 C         140.0738  145.8190  162.4912 C.ar    1  UNL1        0.0002
     14 C         140.6694  144.6793  163.2634 C.ar    1  UNL1        0.0030
     15 C         141.3422  143.5520  162.5376 C.ar    1  UNL1        0.0338
     16 H         143.5719  138.1939  159.3087 H       1  UNL1        0.1233
     17 C         141.7063  142.3747  167.8037 C.ar    1  UNL1        0.0536
     18 C         143.0405  142.4459  167.1220 C.ar    1  UNL1        0.0045
     19 C         143.1177  142.4584  165.6240 C.ar    1  UNL1        0.0001
     20 C         141.8606  142.3998  164.8077 C.ar    1  UNL1       -0.0001
     21 C         140.5263  142.3286  165.4894 C.ar    1  UNL1        0.0001
     22 C         140.4491  142.3160  166.9874 C.ar    1  UNL1        0.0045
     23 C         141.5713  141.0457  171.5407 C.3     1  UNL1        0.1152
     24 N         141.6484  141.0582  170.0427 N.am    1  UNL1       -0.2726
     25 C         141.7450  139.7667  169.2859 C.3     1  UNL1        0.1152
     26 C         141.6291  142.3621  169.3016 C.2     1  UNL1        0.2491
     27 O         141.5326  143.6537  170.0585 O.2     1  UNL1       -0.2699
@<TRIPOS>BOND
     1    23    24    1
     2    24    25    1
     3    24    26   am
     4    26    27    2
     5    26    17    1
     6    17    18   ar
     7    18    19   ar
     8    19    20   ar
     9    20     1    1
    10     1     2    2
    11     2     3    1
    12     3     4    1
    13     4     5    1
    14     5     6    1
    15     6     7    1
    16     7     8    1
    17     3     9    1
    18     9    10    1
    19    10    11   ar
    20    11    12   ar
    21    12    13   ar
    22    13    14   ar
    23    14    15   ar
    24    20    21   ar
    25    21    22   ar
    26    22    17   ar
    27    15     1    1
    28     8     3    1
    29    15    10   ar
    30     6    16    1
@<TRIPOS>MOLECULE
*****
 27 30 0 0 0
SMALL
GASTEIGER

@<TRIPOS>ATOM
      1 C         141.9214  142.2115  163.3315 C.2     1  UNL1        0.0020
      2 C         141.1924  143.4428  162.8814 C.2     1  UNL1        0.0130
      3 C         141.1226  143.7817  161.4219 C.3     1  UNL1        0.1542
      4 C         140.4635  144.6740  162.4314 C.3     1  UNL1        0.0614
      5 C         139.7345  145.9053  161.9813 C.3     1  UNL1        0.0725
      6 N         139.6647  146.2442  160.5218 N.3     1  UNL1       -0.2972
      7 C         140.3238  145.3518  159.5123 C.3     1  UNL1        0.0725
      8 C         141.0528  144.1205  159.9623 C.3     1  UNL1        0.0614
      9 O         141.7818  142.8892  160.4124 O.3     1  UNL1       -0.4785
     10 C         142.5107  141.6579  160.8624 C.ar    1  UNL1        0.1386
     11 C         143.1699  140.7655  159.8529 C.ar    1  UNL1        0.0369
     12 C         143.8989  139.5342  160.3030 C.ar    1  UNL1        0.0031
     13 C         143.9687  139.1954  161.7625 C.ar    1  UNL1        0.0002
     14 C         143.3096  140.0877  162.7720 C.ar    1  UNL1        0.0030
     15 C         142.5806  141.3191  162.3220 C.ar    1  UNL1        0.0338
     16 H         140.0814  147.1689  160.4139 H       1  UNL1        0.1233
     17 C         142.1308  141.1949  167.7101 C.ar    1  UNL1        0.0536
     18 C         141.0866  140.5584  166.8415 C.ar    1  UNL1        0.0045
     19 C         141.0168  140.8973  165.3820 C.ar    1  UNL1        0.0001
     20 C         141.9912  141.8726  164.7910 C.ar    1  UNL1       -0.0001
     21 C         143.0355  142.5091  165.6596 C.ar    1  UNL1        0.0001
     22 C         143.1053  142.1702  167.1192 C.ar    1  UNL1        0.0045
     23 C         141.4616  141.3002  171.6205 C.3     1  UNL1        0.1152
     24 N         141.3918  141.6390  170.1609 N.am    1  UNL1       -0.2726
     25 C         140.5132  142.7610  169.6927 C.3     1  UNL1        0.1152
     26 C         142.2006  140.8560  169.1697 C.2     1  UNL1        0.2491
     27 O         143.0793  139.7340  169.6379 O.2     1  UNL1       -0.2699
@<TRIPOS>BOND
     1    23    24    1
     2    24    25    1
     3    24    26   am
     4    26    27    2
     5    26    17    1
     6    17    18   ar
     7    18    19   ar
     8    19    20   ar
     9    20     1    1
    10     1     2    2
    11     2     3    1
    12     3     4    1
    13     4     5    1
    14     5     6    1
    15     6     7    1
    16     7     8    1
    17     3     9    1
    18     9    10    1
    19    10    11   ar
    20    11    12   ar
    21    12    13   ar
    22    13    14   ar
    23    14    15   ar
    24    20    21   ar
    25    21    22   ar
    26    22    17   ar
    27    15     1    1
    28     8     3    1
    29    15    10   ar
    30     6    16    1
@<TRIPOS>MOLECULE
*****
 27 30 0 0 0
SMALL
GASTEIGER

@<TRIPOS>ATOM
      1 C         140.3272  140.3579  162.3320 C.2     1  UNL1        0.0020
      2 C         140.3350  141.8569  162.3878 C.2     1  UNL1        0.0130
      3 C         139.7228  142.5670  163.5586 C.3     1  UNL1        0.1542
      4 C         140.3428  143.3558  162.4436 C.3     1  UNL1        0.0614
      5 C         140.3506  144.8547  162.4994 C.3     1  UNL1        0.0725
      6 N         139.7384  145.5648  163.6703 N.3     1  UNL1       -0.2972
      7 C         139.1183  144.7760  164.7853 C.3     1  UNL1        0.0725
      8 C         139.1105  143.2771  164.7295 C.3     1  UNL1        0.0614
      9 O         139.1027  141.7781  164.6737 O.3     1  UNL1       -0.4785
     10 C         139.0949  140.2792  164.6178 C.ar    1  UNL1        0.1386
     11 C         138.4748  139.4903  165.7329 C.ar    1  UNL1        0.0369
     12 C         138.4670  137.9914  165.6770 C.ar    1  UNL1        0.0031
     13 C         139.0793  137.2813  164.5062 C.ar    1  UNL1        0.0002
     14 C         139.6993  138.0701  163.3912 C.ar    1  UNL1        0.0030
     15 C         139.7072  139.5691  163.4470 C.ar    1  UNL1        0.0338
     16 H         139.0082  146.1718  163.2976 H       1  UNL1        0.1233
     17 C         142.1640  138.2275  158.8194 C.ar    1  UNL1        0.0536
     18 C         140.7084  138.5894  158.7997 C.ar    1  UNL1        0.0045
     19 C         140.0962  139.2995  159.9705 C.ar    1  UNL1        0.0001
     20 C         140.9395  139.6477  161.1611 C.ar    1  UNL1       -0.0001
     21 C         142.3951  139.2859  161.1809 C.ar    1  UNL1        0.0001
     22 C         143.0073  138.5758  160.0101 C.ar    1  UNL1        0.0045
     23 C         143.9446  137.5959  155.3294 C.3     1  UNL1        0.1152
     24 N         143.3323  138.3060  156.5002 N.am    1  UNL1       -0.2726
     25 C         143.2762  139.8049  156.5227 C.3     1  UNL1        0.1152
     26 C         142.7762  137.5174  157.6486 C.2     1  UNL1        0.2491
     27 O         142.8323  136.0186  157.6261 O.2     1  UNL1       -0.2699
@<TRIPOS>BOND
     1    23    24    1
     2    24    25    1
     3    24    26   am
     4    26    27    2
     5    26    17    1
     6    17    18   ar
     7    18    19   ar
     8    19    20   ar
     9    20     1    1
    10     1     2    2
    11     2     3    1
    12     3     4    1
    13     4     5    1
    14     5     6    1
    15     6     7    1
    16     7     8    1
    17     3     9    1
    18     9    10    1
    19    10    11   ar
    20    11    12   ar
    21    12    13   ar
    22    13    14   ar
    23    14    15   ar
    24    20    21   ar
    25    21    22   ar
    26    22    17   ar
    27    15     1    1
    28     8     3    1
    29    15    10   ar
    30     6    16    1
@<TRIPOS>MOLECULE
*****
 27 30 0 0 0
SMALL
GASTEIGER

@<TRIPOS>ATOM
      1 C         141.0549  140.2391  161.5952 C.2     1  UNL1        0.0020
      2 C         142.4003  140.9015  161.6328 C.2     1  UNL1        0.0130
      3 C         143.3303  140.6457  162.7816 C.3     1  UNL1        0.1542
      4 C         143.7456  141.5638  161.6704 C.3     1  UNL1        0.0614
      5 C         145.0909  142.2261  161.7081 C.3     1  UNL1        0.0725
      6 N         146.0209  141.9704  162.8569 N.3     1  UNL1       -0.2972
      7 C         145.6056  141.0523  163.9680 C.3     1  UNL1        0.0725
      8 C         144.2603  140.3900  163.9303 C.3     1  UNL1        0.0614
      9 O         142.9150  139.7276  163.8927 O.3     1  UNL1       -0.4785
     10 C         141.5697  139.0653  163.8551 C.ar    1  UNL1        0.1386
     11 C         141.1543  138.1471  164.9662 C.ar    1  UNL1        0.0369
     12 C         139.8090  137.4848  164.9286 C.ar    1  UNL1        0.0031
     13 C         138.8790  137.7406  163.7798 C.ar    1  UNL1        0.0002
     14 C         139.2943  138.6586  162.6687 C.ar    1  UNL1        0.0030
     15 C         140.6397  139.3210  162.7063 C.ar    1  UNL1        0.0338
     16 H         146.2197  142.8760  163.2820 H       1  UNL1        0.1233
     17 C         138.2649  141.0063  158.1488 C.ar    1  UNL1        0.0536
     18 C         139.2250  139.8552  158.0946 C.ar    1  UNL1        0.0045
     19 C         140.1550  139.5994  159.2434 C.ar    1  UNL1        0.0001
     20 C         140.1249  140.4948  160.4464 C.ar    1  UNL1       -0.0001
     21 C         139.1648  141.6461  160.5007 C.ar    1  UNL1        0.0001
     22 C         138.2348  141.9019  159.3519 C.ar    1  UNL1        0.0045
     23 C         136.7838  142.5016  154.7843 C.3     1  UNL1        0.1152
     24 N         137.7138  142.2459  155.9331 N.am    1  UNL1       -0.2726
     25 C         139.0227  142.9740  156.0148 C.3     1  UNL1        0.1152
     26 C         137.3349  141.2621  157.0001 C.2     1  UNL1        0.2491
     27 O         136.0260  140.5340  156.9183 O.2     1  UNL1       -0.2699
@<TRIPOS>BOND
     1    23    24    1
     2    24    25    1
     3    24    26   am
     4    26    27    2
     5    26    17    1
     6    17    18   ar
     7    18    19   ar
     8    19    20   ar
     9    20     1    1
    10     1     2    2
    11     2     3    1
    12     3     4    1
    13     4     5    1
    14     5     6    1
    15     6     7    1
    16     7     8    1
    17     3     9    1
    18     9    10    1
    19    10    11   ar
    20    11    12   ar
    21    12    13   ar
    22    13    14   ar
    23    14    15   ar
    24    20    21   ar
    25    21    22   ar
    26    22    17   ar
    27    15     1    1
    28     8     3    1
    29    15    10   ar
    30     6    16    1
@<TRIPOS>MOLECULE
*****
 27 30 0 0 0
SMALL
GASTEIGER

@<TRIPOS>ATOM
      1 C         141.6932  140.7563  163.1162 C.2     1  UNL1        0.0020
      2 C         142.6844  141.3655  162.1693 C.2     1  UNL1        0.0130
      3 C         142.6169  141.0465  160.7052 C.3     1  UNL1        0.1542
      4 C         143.6756  141.9746  161.2225 C.3     1  UNL1        0.0614
      5 C         144.6668  142.5836  160.2757 C.3     1  UNL1        0.0725
      6 N         144.5993  142.2646  158.8116 N.3     1  UNL1       -0.2972
      7 C         143.5405  141.3365  158.2943 C.3     1  UNL1        0.0725
      8 C         142.5493  140.7274  159.2411 C.3     1  UNL1        0.0614
      9 O         141.5581  140.1183  160.1879 O.3     1  UNL1       -0.4785
     10 C         140.5669  139.5092  161.1347 C.ar    1  UNL1        0.1386
     11 C         139.5081  138.5810  160.6174 C.ar    1  UNL1        0.0369
     12 C         138.5169  137.9720  161.5643 C.ar    1  UNL1        0.0031
     13 C         138.5844  138.2910  163.0284 C.ar    1  UNL1        0.0002
     14 C         139.6432  139.2191  163.5457 C.ar    1  UNL1        0.0030
     15 C         140.6344  139.8282  162.5989 C.ar    1  UNL1        0.0338
     16 H         145.4987  141.8561  158.5574 H       1  UNL1        0.1233
     17 C         141.8958  141.7133  167.5086 C.ar    1  UNL1        0.0536
     18 C         142.6535  140.5404  166.9608 C.ar    1  UNL1        0.0045
     19 C         142.5860  140.2214  165.4967 C.ar    1  UNL1        0.0001
     20 C         141.7607  141.0753  164.5803 C.ar    1  UNL1       -0.0001
     21 C         141.0030  142.2483  165.1281 C.ar    1  UNL1        0.0001
     22 C         141.0705  142.5673  166.5922 C.ar    1  UNL1        0.0045
     23 C         141.0092  141.7827  171.3762 C.3     1  UNL1        0.1152
     24 N         140.9416  141.4636  169.9121 N.am    1  UNL1       -0.2726
     25 C         139.8523  140.5759  169.3874 C.3     1  UNL1        0.1152
     26 C         141.9634  142.0324  168.9727 C.2     1  UNL1        0.2491
     27 O         143.0527  142.9201  169.4974 O.2     1  UNL1       -0.2699
@<TRIPOS>BOND
     1    23    24    1
     2    24    25    1
     3    24    26   am
     4    26    27    2
     5    26    17    1
     6    17    18   ar
     7    18    19   ar
     8    19    20   ar
     9    20     1    1
    10     1     2    2
    11     2     3    1
    12     3     4    1
    13     4     5    1
    14     5     6    1
    15     6     7    1
    16     7     8    1
    17     3     9    1
    18     9    10    1
    19    10    11   ar
    20    11    12   ar
    21    12    13   ar
    22    13    14   ar
    23    14    15   ar
    24    20    21   ar
    25    21    22   ar
    26    22    17   ar
    27    15     1    1
    28     8     3    1
    29    15    10   ar
    30     6    16    1
@<TRIPOS>MOLECULE
*****
 27 30 0 0 0
SMALL
GASTEIGER

@<TRIPOS>ATOM
      1 C         139.8738  141.5111  165.2802 C.2     1  UNL1        0.0020
      2 C         140.1491  142.1911  166.5886 C.2     1  UNL1        0.0130
      3 C         139.9504  141.4480  167.8764 C.3     1  UNL1        0.1542
      4 C         140.4243  142.8710  167.8970 C.3     1  UNL1        0.0614
      5 C         140.6996  143.5509  169.2054 C.3     1  UNL1        0.0725
      6 N         140.5009  142.8078  170.4932 N.3     1  UNL1       -0.2972
      7 C         140.0269  141.3848  170.4726 C.3     1  UNL1        0.0725
      8 C         139.7516  140.7049  169.1642 C.3     1  UNL1        0.0614
      9 O         139.4764  140.0250  167.8557 O.3     1  UNL1       -0.4785
     10 C         139.2011  139.3451  166.5473 C.ar    1  UNL1        0.1386
     11 C         138.7271  137.9221  166.5267 C.ar    1  UNL1        0.0369
     12 C         138.4519  137.2422  165.2183 C.ar    1  UNL1        0.0031
     13 C         138.6506  137.9852  163.9305 C.ar    1  UNL1        0.0002
     14 C         139.1245  139.4082  163.9511 C.ar    1  UNL1        0.0030
     15 C         139.3998  140.0882  165.2596 C.ar    1  UNL1        0.0338
     16 H         139.8192  143.3374  171.0366 H       1  UNL1        0.1233
     17 C         140.4699  143.7404  161.4169 C.ar    1  UNL1        0.0536
     18 C         139.3228  144.0927  162.3168 C.ar    1  UNL1        0.0045
     19 C         139.1241  143.3496  163.6046 C.ar    1  UNL1        0.0001
     20 C         140.0725  142.2542  163.9924 C.ar    1  UNL1       -0.0001
     21 C         141.2198  141.9019  163.0925 C.ar    1  UNL1        0.0001
     22 C         141.4185  142.6449  161.8048 C.ar    1  UNL1        0.0045
     23 C         140.1543  144.7795  157.5998 C.3     1  UNL1        0.1152
     24 N         139.9556  144.0364  158.8875 N.am    1  UNL1       -0.2726
     25 C         139.0438  142.8461  158.9336 C.3     1  UNL1        0.1152
     26 C         140.6687  144.4835  160.1291 C.2     1  UNL1        0.2491
     27 O         141.5804  145.6737  160.0830 O.2     1  UNL1       -0.2699
@<TRIPOS>BOND
     1    23    24    1
     2    24    25    1
     3    24    26   am
     4    26    27    2
     5    26    17    1
     6    17    18   ar
     7    18    19   ar
     8    19    20   ar
     9    20     1    1
    10     1     2    2
    11     2     3    1
    12     3     4    1
    13     4     5    1
    14     5     6    1
    15     6     7    1
    16     7     8    1
    17     3     9    1
    18     9    10    1
    19    10    11   ar
    20    11    12   ar
    21    12    13   ar
    22    13    14   ar
    23    14    15   ar
    24    20    21   ar
    25    21    22   ar
    26    22    17   ar
    27    15     1    1
    28     8     3    1
    29    15    10   ar
    30     6    16    1
@<TRIPOS>MOLECULE
*****
 27 30 0 0 0
SMALL
GASTEIGER

@<TRIPOS>ATOM
      1 C         140.5035  142.3589  161.5371 C.2     1  UNL1        0.0020
      2 C         141.9606  142.0141  161.6287 C.2     1  UNL1        0.0130
      3 C         142.7518  142.4163  162.8379 C.3     1  UNL1        0.1542
      4 C         143.4175  141.6694  161.7203 C.3     1  UNL1        0.0614
      5 C         144.8744  141.3247  161.8119 C.3     1  UNL1        0.0725
      6 N         145.6657  141.7268  163.0211 N.3     1  UNL1       -0.2972
      7 C         145.0001  142.4737  164.1387 C.3     1  UNL1        0.0725
      8 C         143.5431  142.8185  164.0470 C.3     1  UNL1        0.0614
      9 O         142.0861  143.1633  163.9555 O.3     1  UNL1       -0.4785
     10 C         140.6292  143.5080  163.8638 C.ar    1  UNL1        0.1386
     11 C         139.9634  144.2549  164.9814 C.ar    1  UNL1        0.0369
     12 C         138.5065  144.5997  164.8898 C.ar    1  UNL1        0.0031
     13 C         137.7152  144.1975  163.6806 C.ar    1  UNL1        0.0002
     14 C         138.3809  143.4506  162.5631 C.ar    1  UNL1        0.0030
     15 C         139.8379  143.1058  162.6547 C.ar    1  UNL1        0.0338
     16 H         146.4316  142.3135  162.6900 H       1  UNL1        0.1233
     17 C         138.1297  141.1524  157.9095 C.ar    1  UNL1        0.0536
     18 C         138.6150  142.5644  158.0527 C.ar    1  UNL1        0.0045
     19 C         139.4063  142.9666  159.2619 C.ar    1  UNL1        0.0001
     20 C         139.7123  141.9567  160.3279 C.ar    1  UNL1       -0.0001
     21 C         139.2270  140.5446  160.1848 C.ar    1  UNL1        0.0001
     22 C         138.4357  140.1424  158.9756 C.ar    1  UNL1        0.0045
     23 C         137.2460  140.0898  154.1893 C.3     1  UNL1        0.1152
     24 N         138.0373  140.4920  155.3985 N.am    1  UNL1       -0.2726
     25 C         139.5275  140.6360  155.3058 C.3     1  UNL1        0.1152
     26 C         137.3384  140.7502  156.7004 C.2     1  UNL1        0.2491
     27 O         135.8481  140.6062  156.7931 O.2     1  UNL1       -0.2699
@<TRIPOS>BOND
     1    23    24    1
     2    24    25    1
     3    24    26   am
     4    26    27    2
     5    26    17    1
     6    17    18   ar
     7    18    19   ar
     8    19    20   ar
     9    20     1    1
    10     1     2    2
    11     2     3    1
    12     3     4    1
    13     4     5    1
    14     5     6    1
    15     6     7    1
    16     7     8    1
    17     3     9    1
    18     9    10    1
    19    10    11   ar
    20    11    12   ar
    21    12    13   ar
    22    13    14   ar
    23    14    15   ar
    24    20    21   ar
    25    21    22   ar
    26    22    17   ar
    27    15     1    1
    28     8     3    1
    29    15    10   ar
    30     6    16    1
