@<TRIPOS>MOLECULE
*****
 34 37 0 0 0
SMALL
GASTEIGER

@<TRIPOS>ATOM
      1 N         137.4154  140.8223  161.6348 N.pl3   1  UNL1       -0.2825
      2 H         136.4375  140.8382  161.5218 H       1  UNL1        0.1551
      3 C         141.2478  144.4593  160.9217 C.ar    1  UNL1        0.1554
      4 N         141.7669  145.0478  159.6433 N.ar    1  UNL1       -0.1646
      5 N         141.0073  144.4304  158.5068 N.ar    1  UNL1       -0.2490
      6 C         141.2020  144.7304  157.0501 C.3     1  UNL1        0.1537
      7 C         140.0186  143.4604  159.0827 C.ar    1  UNL1        0.0756
      8 C         139.0023  142.5632  158.4409 C.ar    1  UNL1       -0.0033
      9 C         138.8536  142.5453  156.9484 C.3     1  UNL1        0.0326
     10 C         138.1345  141.6838  159.2916 C.ar    1  UNL1        0.0119
     11 C         138.2832  141.7017  160.7841 C.ar    1  UNL1        0.0503
     12 C         139.2995  142.5989  161.4259 C.ar    1  UNL1        0.0178
     13 C         140.1673  143.4783  160.5752 C.ar    1  UNL1        0.0420
     14 C         143.6724  145.2378  163.9656 C.3     1  UNL1        0.1110
     15 N         143.1949  144.9039  162.5834 N.am    1  UNL1       -0.2979
     16 C         141.7252  144.7933  162.3039 C.2     1  UNL1        0.2654
     17 O         140.7333  145.0166  163.4066 O.2     1  UNL1       -0.2684
     18 H         143.8460  144.7573  161.8597 H       1  UNL1        0.1498
     19 C         138.0375  139.9185  162.6576 C.ar    1  UNL1        0.2207
     20 N         138.3126  138.4828  162.3217 N.ar    1  UNL1       -0.2120
     21 C         138.9347  137.5791  163.3446 C.ar    1  UNL1        0.1034
     22 C         139.2817  138.1111  164.7034 C.ar    1  UNL1        0.0415
     23 C         139.0066  139.5469  165.0394 C.ar    1  UNL1        0.1050
     24 N         138.3845  140.4506  164.0165 N.ar    1  UNL1       -0.2120
     25 C         139.3537  140.0790  166.3982 C.ar    1  UNL1        0.1198
     26 C         140.2162  141.2725  166.6839 C.ar    1  UNL1        0.0381
     27 C         140.2947  141.4421  168.1722 C.ar    1  UNL1        0.0734
     28 N         139.4806  140.3534  168.8063 N.ar    1  UNL1       -0.2515
     29 C         139.2829  140.1440  170.2784 C.3     1  UNL1        0.1534
     30 N         138.8991  139.5110  167.7099 N.ar    1  UNL1       -0.1680
     31 C         141.0539  142.5125  168.8988 C.3     1  UNL1        0.1184
     32 N         142.3140  142.1689  169.6365 N.3     1  UNL1       -0.2652
     33 C         142.9604  140.8306  169.4342 C.3     1  UNL1        0.0900
     34 C         142.9276  143.1638  170.5767 C.3     1  UNL1        0.0900
@<TRIPOS>BOND
     1    14    15    1
     2    15    16   am
     3    16    17    2
     4    16     3    1
     5     3     4   ar
     6     4     5   ar
     7     5     6    1
     8     5     7   ar
     9     7     8   ar
    10     8     9    1
    11     8    10   ar
    12    10    11   ar
    13    11     1    1
    14     1    19    1
    15    19    20   ar
    16    20    21   ar
    17    21    22   ar
    18    22    23   ar
    19    23    25    1
    20    25    26   ar
    21    26    27   ar
    22    27    31    1
    23    31    32    1
    24    32    33    1
    25    32    34    1
    26    27    28   ar
    27    28    29    1
    28    28    30   ar
    29    23    24   ar
    30    11    12   ar
    31    12    13   ar
    32    13     3   ar
    33    13     7   ar
    34    24    19   ar
    35    30    25   ar
    36    15    18    1
    37     1     2    1
@<TRIPOS>MOLECULE
*****
 34 37 0 0 0
SMALL
GASTEIGER

@<TRIPOS>ATOM
      1 N         142.4167  139.9146  162.1197 N.pl3   1  UNL1       -0.2825
      2 H         143.2872  139.4743  161.9872 H       1  UNL1        0.1551
      3 C         139.8878  144.5820  161.6262 C.ar    1  UNL1        0.1554
      4 N         140.0064  145.6118  160.5420 N.ar    1  UNL1       -0.1646
      5 N         141.0064  145.1165  159.5397 N.ar    1  UNL1       -0.2490
      6 C         141.4323  145.8315  158.2918 C.3     1  UNL1        0.1537
      7 C         141.5058  143.7806  160.0044 C.ar    1  UNL1        0.0756
      8 C         142.5008  142.8223  159.4200 C.ar    1  UNL1       -0.0033
      9 C         143.1922  143.1526  158.1305 C.3     1  UNL1        0.0326
     10 C         142.8044  141.5336  160.1251 C.ar    1  UNL1        0.0119
     11 C         142.1131  141.2033  161.4146 C.ar    1  UNL1        0.0503
     12 C         141.1181  142.1616  161.9991 C.ar    1  UNL1        0.0178
     13 C         140.8145  143.4502  161.2940 C.ar    1  UNL1        0.0420
     14 C         138.7047  144.9943  165.3919 C.3     1  UNL1        0.1110
     15 N         139.5939  144.9076  164.1870 N.am    1  UNL1       -0.2979
     16 C         138.9985  144.6687  162.8311 C.2     1  UNL1        0.2654
     17 O         137.5140  144.5165  162.6802 O.2     1  UNL1       -0.2684
     18 H         140.5683  145.0075  164.2861 H       1  UNL1        0.1498
     19 C         141.3941  139.2968  163.0266 C.ar    1  UNL1        0.2207
     20 N         140.4786  138.2283  162.5069 N.ar    1  UNL1       -0.2120
     21 C         139.4559  137.6106  163.4139 C.ar    1  UNL1        0.1034
     22 C         139.3487  138.0613  164.8405 C.ar    1  UNL1        0.0415
     23 C         140.2642  139.1299  165.3602 C.ar    1  UNL1        0.1050
     24 N         141.2869  139.7476  164.4533 N.ar    1  UNL1       -0.2120
     25 C         140.1571  139.5806  166.7868 C.ar    1  UNL1        0.1198
     26 C         141.2508  140.2115  167.5967 C.ar    1  UNL1        0.0381
     27 C         140.7071  140.5005  168.9645 C.ar    1  UNL1        0.0734
     28 N         139.2773  140.0482  169.0000 N.ar    1  UNL1       -0.2515
     29 C         138.3502  140.1470  170.1750 C.3     1  UNL1        0.1534
     30 N         138.9374  139.4797  167.6541 N.ar    1  UNL1       -0.1680
     31 C         141.4608  141.1310  170.0978 C.3     1  UNL1        0.1184
     32 N         141.6676  142.6164  170.1265 N.3     1  UNL1       -0.2652
     33 C         142.9881  143.1816  170.5589 C.3     1  UNL1        0.0900
     34 C         140.5539  143.5367  169.7227 C.3     1  UNL1        0.0900
@<TRIPOS>BOND
     1    14    15    1
     2    15    16   am
     3    16    17    2
     4    16     3    1
     5     3     4   ar
     6     4     5   ar
     7     5     6    1
     8     5     7   ar
     9     7     8   ar
    10     8     9    1
    11     8    10   ar
    12    10    11   ar
    13    11     1    1
    14     1    19    1
    15    19    20   ar
    16    20    21   ar
    17    21    22   ar
    18    22    23   ar
    19    23    25    1
    20    25    26   ar
    21    26    27   ar
    22    27    31    1
    23    31    32    1
    24    32    33    1
    25    32    34    1
    26    27    28   ar
    27    28    29    1
    28    28    30   ar
    29    23    24   ar
    30    11    12   ar
    31    12    13   ar
    32    13     3   ar
    33    13     7   ar
    34    24    19   ar
    35    30    25   ar
    36    15    18    1
    37     1     2    1
@<TRIPOS>MOLECULE
*****
 34 37 0 0 0
SMALL
GASTEIGER

@<TRIPOS>ATOM
      1 N         138.8501  139.2169  165.0524 N.pl3   1  UNL1       -0.2825
      2 H         138.4256  138.3477  165.2355 H       1  UNL1        0.1551
      3 C         142.9930  142.0876  166.7901 C.ar    1  UNL1        0.1554
      4 N         143.3136  142.5368  168.1848 N.ar    1  UNL1       -0.1646
      5 N         142.2322  142.0330  169.0941 N.ar    1  UNL1       -0.2490
      6 C         142.1535  142.2515  170.5760 C.3     1  UNL1        0.1537
      7 C         141.2432  141.2725  168.2613 C.ar    1  UNL1        0.0756
      8 C         139.9753  140.5536  168.6157 C.ar    1  UNL1       -0.0033
      9 C         139.5051  140.5199  170.0397 C.3     1  UNL1        0.0326
     10 C         139.1776  139.8684  167.5460 C.ar    1  UNL1        0.0119
     11 C         139.6478  139.9021  166.1220 C.ar    1  UNL1        0.0503
     12 C         140.9157  140.6210  165.7677 C.ar    1  UNL1        0.0178
     13 C         141.7134  141.3062  166.8373 C.ar    1  UNL1        0.0420
     14 C         145.1914  141.5183  163.5353 C.3     1  UNL1        0.1110
     15 N         144.3757  141.2358  164.7620 N.am    1  UNL1       -0.2979
     16 C         143.8087  142.3701  165.5633 C.2     1  UNL1        0.2654
     17 O         144.0574  143.7867  165.1379 O.2     1  UNL1       -0.2684
     18 H         144.2125  140.3059  165.0413 H       1  UNL1        0.1498
     19 C         138.6991  139.8560  163.7038 C.ar    1  UNL1        0.2207
     20 N         137.9337  141.1384  163.5630 N.ar    1  UNL1       -0.2120
     21 C         137.7828  141.7775  162.2143 C.ar    1  UNL1        0.1034
     22 C         138.3971  141.1343  161.0065 C.ar    1  UNL1        0.0415
     23 C         139.1625  139.8519  161.1473 C.ar    1  UNL1        0.1050
     24 N         139.3135  139.2128  162.4959 N.ar    1  UNL1       -0.2120
     25 C         139.7769  139.2087  159.9396 C.ar    1  UNL1        0.1198
     26 C         141.1968  138.7412  159.8158 C.ar    1  UNL1        0.0381
     27 C         141.3767  138.1636  158.4433 C.ar    1  UNL1        0.0734
     28 N         140.0679  138.2741  157.7187 N.ar    1  UNL1       -0.2515
     29 C         139.7957  137.8187  156.3156 C.3     1  UNL1        0.1534
     30 N         139.0792  138.9200  158.6435 N.ar    1  UNL1       -0.1680
     31 C         142.6430  137.5782  157.8920 C.3     1  UNL1        0.1184
     32 N         143.3877  138.2925  156.8033 N.3     1  UNL1       -0.2652
     33 C         143.6273  139.7699  156.9032 C.3     1  UNL1        0.0900
     34 C         143.8928  137.5293  155.6148 C.3     1  UNL1        0.0900
@<TRIPOS>BOND
     1    14    15    1
     2    15    16   am
     3    16    17    2
     4    16     3    1
     5     3     4   ar
     6     4     5   ar
     7     5     6    1
     8     5     7   ar
     9     7     8   ar
    10     8     9    1
    11     8    10   ar
    12    10    11   ar
    13    11     1    1
    14     1    19    1
    15    19    20   ar
    16    20    21   ar
    17    21    22   ar
    18    22    23   ar
    19    23    25    1
    20    25    26   ar
    21    26    27   ar
    22    27    31    1
    23    31    32    1
    24    32    33    1
    25    32    34    1
    26    27    28   ar
    27    28    29    1
    28    28    30   ar
    29    23    24   ar
    30    11    12   ar
    31    12    13   ar
    32    13     3   ar
    33    13     7   ar
    34    24    19   ar
    35    30    25   ar
    36    15    18    1
    37     1     2    1
@<TRIPOS>MOLECULE
*****
 34 37 0 0 0
SMALL
GASTEIGER

@<TRIPOS>ATOM
      1 N         142.4187  144.8244  161.5982 N.pl3   1  UNL1       -0.2825
      2 H         142.5017  145.7685  161.8648 H       1  UNL1        0.1551
      3 C         138.4869  141.8671  159.5441 C.ar    1  UNL1        0.1554
      4 N         137.8542  141.9465  158.1864 N.ar    1  UNL1       -0.1646
      5 N         138.5253  143.0519  157.4263 N.ar    1  UNL1       -0.2490
      6 C         138.2052  143.4786  156.0244 C.3     1  UNL1        0.1537
      7 C         139.5728  143.6556  158.3142 C.ar    1  UNL1        0.0756
      8 C         140.5452  144.7774  158.0999 C.ar    1  UNL1       -0.0033
      9 C         140.5689  145.5096  156.7910 C.3     1  UNL1        0.0326
     10 C         141.4938  145.1670  159.1946 C.ar    1  UNL1        0.0119
     11 C         141.4700  144.4348  160.5035 C.ar    1  UNL1        0.0503
     12 C         140.4977  143.3129  160.7178 C.ar    1  UNL1        0.0178
     13 C         139.5491  142.9233  159.6231 C.ar    1  UNL1        0.0420
     14 C         138.1072  138.4830  161.5823 C.3     1  UNL1        0.1110
     15 N         138.4725  139.4491  160.4945 N.am    1  UNL1       -0.2979
     16 C         138.1216  140.9010  160.6319 C.2     1  UNL1        0.2654
     17 O         137.4055  141.3868  161.8571 O.2     1  UNL1       -0.2684
     18 H         138.9425  139.1302  159.6904 H       1  UNL1        0.1498
     19 C         143.2409  143.7757  162.2867 C.ar    1  UNL1        0.2207
     20 N         144.4027  143.1471  161.5759 N.ar    1  UNL1       -0.2120
     21 C         145.2249  142.0983  162.2644 C.ar    1  UNL1        0.1034
     22 C         144.8853  141.6781  163.6637 C.ar    1  UNL1        0.0415
     23 C         143.7236  142.3067  164.3745 C.ar    1  UNL1        0.1050
     24 N         142.9014  143.3554  163.6860 N.ar    1  UNL1       -0.2120
     25 C         143.3840  141.8865  165.7738 C.ar    1  UNL1        0.1198
     26 C         143.3553  142.7781  166.9798 C.ar    1  UNL1        0.0381
     27 C         142.9671  141.9435  168.1641 C.ar    1  UNL1        0.0734
     28 N         142.7559  140.5361  167.6902 N.ar    1  UNL1       -0.2515
     29 C         142.3570  139.3688  168.5437 C.3     1  UNL1        0.1534
     30 N         143.0135  140.5009  166.2129 N.ar    1  UNL1       -0.1680
     31 C         142.8166  142.4308  169.5748 C.3     1  UNL1        0.1184
     32 N         141.4497  142.5873  170.1723 N.3     1  UNL1       -0.2652
     33 C         140.5638  143.7152  169.7331 C.3     1  UNL1        0.0900
     34 C         140.9687  141.6159  171.2093 C.3     1  UNL1        0.0900
@<TRIPOS>BOND
     1    14    15    1
     2    15    16   am
     3    16    17    2
     4    16     3    1
     5     3     4   ar
     6     4     5   ar
     7     5     6    1
     8     5     7   ar
     9     7     8   ar
    10     8     9    1
    11     8    10   ar
    12    10    11   ar
    13    11     1    1
    14     1    19    1
    15    19    20   ar
    16    20    21   ar
    17    21    22   ar
    18    22    23   ar
    19    23    25    1
    20    25    26   ar
    21    26    27   ar
    22    27    31    1
    23    31    32    1
    24    32    33    1
    25    32    34    1
    26    27    28   ar
    27    28    29    1
    28    28    30   ar
    29    23    24   ar
    30    11    12   ar
    31    12    13   ar
    32    13     3   ar
    33    13     7   ar
    34    24    19   ar
    35    30    25   ar
    36    15    18    1
    37     1     2    1
@<TRIPOS>MOLECULE
*****
 34 37 0 0 0
SMALL
GASTEIGER

@<TRIPOS>ATOM
      1 N         144.5207  141.7017  160.3266 N.pl3   1  UNL1       -0.2825
      2 H         145.4800  141.8537  160.1656 H       1  UNL1        0.1551
      3 C         140.5828  145.2139  161.0893 C.ar    1  UNL1        0.1554
      4 N         139.8488  146.0456  160.0796 N.ar    1  UNL1       -0.1646
      5 N         140.4125  145.7343  158.7249 N.ar    1  UNL1       -0.2490
      6 C         139.9713  146.3407  157.4257 C.3     1  UNL1        0.1537
      7 C         141.4949  144.7102  158.8973 C.ar    1  UNL1        0.0756
      8 C         142.3982  144.0291  157.9124 C.ar    1  UNL1       -0.0033
      9 C         142.2930  144.3508  156.4511 C.3     1  UNL1        0.0326
     10 C         143.4068  143.0263  158.3889 C.ar    1  UNL1        0.0119
     11 C         143.5120  142.7046  159.8502 C.ar    1  UNL1        0.0503
     12 C         142.6087  143.3857  160.8350 C.ar    1  UNL1        0.0178
     13 C         141.6001  144.3886  160.3586 C.ar    1  UNL1        0.0420
     14 C         138.7564  144.8132  164.5899 C.3     1  UNL1        0.1110
     15 N         138.9975  144.8187  163.1094 N.am    1  UNL1       -0.2979
     16 C         140.3418  145.2084  162.5698 C.2     1  UNL1        0.2654
     17 O         141.4449  145.5925  163.5107 O.2     1  UNL1       -0.2684
     18 H         138.2734  144.5665  162.4919 H       1  UNL1        0.1498
     19 C         144.0677  140.4673  161.0484 C.ar    1  UNL1        0.2207
     20 N         144.1866  139.1259  160.3875 N.ar    1  UNL1       -0.2120
     21 C         143.7336  137.8914  161.1093 C.ar    1  UNL1        0.1034
     22 C         143.1618  137.9983  162.4919 C.ar    1  UNL1        0.0415
     23 C         143.0430  139.3396  163.1528 C.ar    1  UNL1        0.1050
     24 N         143.4960  140.5741  162.4311 N.ar    1  UNL1       -0.2120
     25 C         142.4713  139.4465  164.5354 C.ar    1  UNL1        0.1198
     26 C         143.2417  139.3447  165.8184 C.ar    1  UNL1        0.0381
     27 C         142.2753  139.5092  166.9537 C.ar    1  UNL1        0.0734
     28 N         140.9076  139.7127  166.3724 N.ar    1  UNL1       -0.2515
     29 C         139.6411  139.9187  167.1492 C.3     1  UNL1        0.1534
     30 N         141.0287  139.6739  164.8778 N.ar    1  UNL1       -0.1680
     31 C         142.6167  139.4760  168.4140 C.3     1  UNL1        0.1184
     32 N         142.4463  140.7083  169.2522 N.3     1  UNL1       -0.2652
     33 C         141.6258  140.6545  170.5067 C.3     1  UNL1        0.0900
     34 C         143.0966  141.9944  168.8359 C.3     1  UNL1        0.0900
@<TRIPOS>BOND
     1    14    15    1
     2    15    16   am
     3    16    17    2
     4    16     3    1
     5     3     4   ar
     6     4     5   ar
     7     5     6    1
     8     5     7   ar
     9     7     8   ar
    10     8     9    1
    11     8    10   ar
    12    10    11   ar
    13    11     1    1
    14     1    19    1
    15    19    20   ar
    16    20    21   ar
    17    21    22   ar
    18    22    23   ar
    19    23    25    1
    20    25    26   ar
    21    26    27   ar
    22    27    31    1
    23    31    32    1
    24    32    33    1
    25    32    34    1
    26    27    28   ar
    27    28    29    1
    28    28    30   ar
    29    23    24   ar
    30    11    12   ar
    31    12    13   ar
    32    13     3   ar
    33    13     7   ar
    34    24    19   ar
    35    30    25   ar
    36    15    18    1
    37     1     2    1
@<TRIPOS>MOLECULE
*****
 34 37 0 0 0
SMALL
GASTEIGER

@<TRIPOS>ATOM
      1 N         138.8413  138.7535  165.3110 N.pl3   1  UNL1       -0.2825
      2 H         138.3179  137.9918  165.6504 H       1  UNL1        0.1551
      3 C         142.9630  141.8796  166.6004 C.ar    1  UNL1        0.1554
      4 N         143.2663  142.5542  167.9054 N.ar    1  UNL1       -0.1646
      5 N         142.1735  142.2060  168.8721 N.ar    1  UNL1       -0.2490
      6 C         142.0765  142.6666  170.2963 C.3     1  UNL1        0.1537
      7 C         141.1948  141.3163  168.1646 C.ar    1  UNL1        0.0756
      8 C         139.9224  140.6637  168.6174 C.ar    1  UNL1       -0.0033
      9 C         139.4345  140.8654  170.0214 C.3     1  UNL1        0.0326
     10 C         139.1379  139.8095  167.6662 C.ar    1  UNL1        0.0119
     11 C         139.6259  139.6078  166.2622 C.ar    1  UNL1        0.0503
     12 C         140.8983  140.2603  165.8094 C.ar    1  UNL1        0.0178
     13 C         141.6828  141.1146  166.7606 C.ar    1  UNL1        0.0420
     14 C         145.1717  140.7797  163.4920 C.3     1  UNL1        0.1110
     15 N         144.3407  140.7027  164.7384 N.am    1  UNL1       -0.2979
     16 C         143.7940  141.9567  165.3540 C.2     1  UNL1        0.2654
     17 O         144.0784  143.2874  164.7231 O.2     1  UNL1       -0.2684
     18 H         144.1541  139.8292  165.1524 H       1  UNL1        0.1498
     19 C         138.8541  139.0597  163.8427 C.ar    1  UNL1        0.2207
     20 N         138.5986  137.9677  162.8465 N.ar    1  UNL1       -0.2120
     21 C         138.6114  138.2740  161.3781 C.ar    1  UNL1        0.1034
     22 C         138.8797  139.6722  160.9059 C.ar    1  UNL1        0.0415
     23 C         139.1352  140.7642  161.9021 C.ar    1  UNL1        0.1050
     24 N         139.1224  140.4580  163.3704 N.ar    1  UNL1       -0.2120
     25 C         139.4036  142.1624  161.4299 C.ar    1  UNL1        0.1198
     26 C         139.7389  142.5697  160.0257 C.ar    1  UNL1        0.0381
     27 C         139.9263  144.0578  160.0070 C.ar    1  UNL1        0.0734
     28 N         139.7067  144.5702  161.3996 N.ar    1  UNL1       -0.2515
     29 C         139.7948  146.0026  161.8361 C.3     1  UNL1        0.1534
     30 N         139.3837  143.3988  162.2790 N.ar    1  UNL1       -0.1680
     31 C         140.2724  144.8878  158.8064 C.3     1  UNL1        0.1184
     32 N         141.6692  144.8704  158.2600 N.3     1  UNL1       -0.2652
     33 C         142.1003  145.9116  157.2700 C.3     1  UNL1        0.0900
     34 C         142.6350  143.8118  158.7036 C.3     1  UNL1        0.0900
@<TRIPOS>BOND
     1    14    15    1
     2    15    16   am
     3    16    17    2
     4    16     3    1
     5     3     4   ar
     6     4     5   ar
     7     5     6    1
     8     5     7   ar
     9     7     8   ar
    10     8     9    1
    11     8    10   ar
    12    10    11   ar
    13    11     1    1
    14     1    19    1
    15    19    20   ar
    16    20    21   ar
    17    21    22   ar
    18    22    23   ar
    19    23    25    1
    20    25    26   ar
    21    26    27   ar
    22    27    31    1
    23    31    32    1
    24    32    33    1
    25    32    34    1
    26    27    28   ar
    27    28    29    1
    28    28    30   ar
    29    23    24   ar
    30    11    12   ar
    31    12    13   ar
    32    13     3   ar
    33    13     7   ar
    34    24    19   ar
    35    30    25   ar
    36    15    18    1
    37     1     2    1
@<TRIPOS>MOLECULE
*****
 34 37 0 0 0
SMALL
GASTEIGER

@<TRIPOS>ATOM
      1 N         139.3178  137.6097  161.8406 N.pl3   1  UNL1       -0.2825
      2 H         138.9696  136.6921  161.7627 H       1  UNL1        0.1551
      3 C         142.6332  139.9216  165.3173 C.ar    1  UNL1        0.1554
      4 N         142.3915  140.2944  166.7499 N.ar    1  UNL1       -0.1646
      5 N         140.9873  139.9007  167.1007 N.ar    1  UNL1       -0.2490
      6 C         140.3253  140.0899  168.4334 C.3     1  UNL1        0.1537
      7 C         140.3611  139.2845  165.8849 C.ar    1  UNL1        0.0756
      8 C         138.9961  138.7133  165.6391 C.ar    1  UNL1       -0.0033
      9 C         137.9788  138.7004  166.7414 C.3     1  UNL1        0.0326
     10 C         138.6483  138.1551  164.2910 C.ar    1  UNL1        0.0119
     11 C         139.6656  138.1680  163.1887 C.ar    1  UNL1        0.0503
     12 C         141.0306  138.7392  163.4345 C.ar    1  UNL1        0.0178
     13 C         141.3784  139.2974  164.7826 C.ar    1  UNL1        0.0420
     14 C         145.8080  141.7104  163.7452 C.3     1  UNL1        0.1110
     15 N         144.5349  141.4966  164.5091 N.am    1  UNL1       -0.2979
     16 C         143.9062  140.1354  164.5533 C.2     1  UNL1        0.2654
     17 O         144.5507  138.9880  163.8335 O.2     1  UNL1       -0.2684
     18 H         144.1119  142.2497  164.9816 H       1  UNL1        0.1498
     19 C         139.5005  138.4494  160.6112 C.ar    1  UNL1        0.2207
     20 N         139.5453  137.8005  159.2595 N.ar    1  UNL1       -0.2120
     21 C         139.7280  138.6403  158.0301 C.ar    1  UNL1        0.1034
     22 C         139.8659  140.1290  158.1524 C.ar    1  UNL1        0.0415
     23 C         139.8211  140.7778  159.5040 C.ar    1  UNL1        0.1050
     24 N         139.6384  139.9381  160.7334 N.ar    1  UNL1       -0.2120
     25 C         139.9590  142.2664  159.6263 C.ar    1  UNL1        0.1198
     26 C         140.0501  143.0412  160.9075 C.ar    1  UNL1        0.0381
     27 C         140.1774  144.4953  160.5619 C.ar    1  UNL1        0.0734
     28 N         140.1650  144.6191  159.0670 N.ar    1  UNL1       -0.2515
     29 C         140.2693  145.8963  158.2872 C.3     1  UNL1        0.1534
     30 N         140.0301  143.2417  158.4888 N.ar    1  UNL1       -0.1680
     31 C         140.2963  145.6268  161.5394 C.3     1  UNL1        0.1184
     32 N         140.4863  145.3398  162.9994 N.3     1  UNL1       -0.2652
     33 C         141.8581  145.3992  163.6031 C.3     1  UNL1        0.0900
     34 C         139.3043  144.9933  163.8557 C.3     1  UNL1        0.0900
@<TRIPOS>BOND
     1    14    15    1
     2    15    16   am
     3    16    17    2
     4    16     3    1
     5     3     4   ar
     6     4     5   ar
     7     5     6    1
     8     5     7   ar
     9     7     8   ar
    10     8     9    1
    11     8    10   ar
    12    10    11   ar
    13    11     1    1
    14     1    19    1
    15    19    20   ar
    16    20    21   ar
    17    21    22   ar
    18    22    23   ar
    19    23    25    1
    20    25    26   ar
    21    26    27   ar
    22    27    31    1
    23    31    32    1
    24    32    33    1
    25    32    34    1
    26    27    28   ar
    27    28    29    1
    28    28    30   ar
    29    23    24   ar
    30    11    12   ar
    31    12    13   ar
    32    13     3   ar
    33    13     7   ar
    34    24    19   ar
    35    30    25   ar
    36    15    18    1
    37     1     2    1
@<TRIPOS>MOLECULE
*****
 34 37 0 0 0
SMALL
GASTEIGER

@<TRIPOS>ATOM
      1 N         139.4107  143.6305  165.4880 N.pl3   1  UNL1       -0.2825
      2 H         139.2607  144.5887  165.6576 H       1  UNL1        0.1551
      3 C         142.3695  139.4153  166.8666 C.ar    1  UNL1        0.1554
      4 N         142.9617  139.0714  168.2011 N.ar    1  UNL1       -0.1646
      5 N         142.5822  140.1526  169.1690 N.ar    1  UNL1       -0.2490
      6 C         142.9627  140.2114  170.6188 C.3     1  UNL1        0.1537
      7 C         141.7554  141.1647  168.4328 C.ar    1  UNL1        0.0756
      8 C         141.1053  142.4423  168.8742 C.ar    1  UNL1       -0.0033
      9 C         141.2368  142.8980  170.2973 C.3     1  UNL1        0.0326
     10 C         140.3238  143.2643  167.8927 C.ar    1  UNL1        0.0119
     11 C         140.1923  142.8085  166.4696 C.ar    1  UNL1        0.0503
     12 C         140.8424  141.5309  166.0281 C.ar    1  UNL1        0.0178
     13 C         141.6240  140.7090  167.0097 C.ar    1  UNL1        0.0420
     14 C         141.4321  137.0987  163.7835 C.3     1  UNL1        0.1110
     15 N         141.3017  137.9067  165.0406 N.am    1  UNL1       -0.2979
     16 C         142.4999  138.6073  165.6095 C.2     1  UNL1        0.2654
     17 O         143.8283  138.4998  164.9214 O.2     1  UNL1       -0.2684
     18 H         140.4297  137.9772  165.4922 H       1  UNL1        0.1498
     19 C         138.8576  142.9927  164.2482 C.ar    1  UNL1        0.2207
     20 N         137.9064  141.8382  164.3591 N.ar    1  UNL1       -0.2120
     21 C         137.3533  141.2004  163.1192 C.ar    1  UNL1        0.1034
     22 C         137.7514  141.7171  161.7684 C.ar    1  UNL1        0.0415
     23 C         138.7026  142.8716  161.6576 C.ar    1  UNL1        0.1050
     24 N         139.2556  143.5095  162.8974 N.ar    1  UNL1       -0.2120
     25 C         139.1006  143.3884  160.3068 C.ar    1  UNL1        0.1198
     26 C         138.6977  142.8040  158.9854 C.ar    1  UNL1        0.0381
     27 C         139.3196  143.6346  157.9022 C.ar    1  UNL1        0.0734
     28 N         140.1069  144.7324  158.5543 N.ar    1  UNL1       -0.2515
     29 C         140.8917  145.7957  157.8448 C.3     1  UNL1        0.1534
     30 N         139.9716  144.5802  160.0404 N.ar    1  UNL1       -0.1680
     31 C         139.1789  143.4075  156.4263 C.3     1  UNL1        0.1184
     32 N         138.0674  144.0705  155.6679 N.3     1  UNL1       -0.2652
     33 C         138.2244  145.4836  155.1899 C.3     1  UNL1        0.0900
     34 C         136.7990  143.3204  155.3876 C.3     1  UNL1        0.0900
@<TRIPOS>BOND
     1    14    15    1
     2    15    16   am
     3    16    17    2
     4    16     3    1
     5     3     4   ar
     6     4     5   ar
     7     5     6    1
     8     5     7   ar
     9     7     8   ar
    10     8     9    1
    11     8    10   ar
    12    10    11   ar
    13    11     1    1
    14     1    19    1
    15    19    20   ar
    16    20    21   ar
    17    21    22   ar
    18    22    23   ar
    19    23    25    1
    20    25    26   ar
    21    26    27   ar
    22    27    31    1
    23    31    32    1
    24    32    33    1
    25    32    34    1
    26    27    28   ar
    27    28    29    1
    28    28    30   ar
    29    23    24   ar
    30    11    12   ar
    31    12    13   ar
    32    13     3   ar
    33    13     7   ar
    34    24    19   ar
    35    30    25   ar
    36    15    18    1
    37     1     2    1
@<TRIPOS>MOLECULE
*****
 34 37 0 0 0
SMALL
GASTEIGER

@<TRIPOS>ATOM
      1 N         143.2977  137.6540  161.5023 N.pl3   1  UNL1       -0.2825
      2 H         143.6666  136.7463  161.5988 H       1  UNL1        0.1551
      3 C         138.9625  139.9266  159.3892 C.ar    1  UNL1        0.1554
      4 N         138.4747  139.8959  157.9711 N.ar    1  UNL1       -0.1646
      5 N         139.4416  139.0793  157.1660 N.ar    1  UNL1       -0.2490
      6 C         139.3408  138.7878  155.6980 C.3     1  UNL1        0.1537
      7 C         140.5269  138.6053  158.0865 C.ar    1  UNL1        0.0756
      8 C         141.7466  137.7645  157.8510 C.ar    1  UNL1       -0.0033
      9 C         142.0427  137.2408  156.4769 C.3     1  UNL1        0.0326
     10 C         142.6701  137.4474  158.9896 C.ar    1  UNL1        0.0119
     11 C         142.3740  137.9711  160.3637 C.ar    1  UNL1        0.0503
     12 C         141.1544  138.8119  160.5991 C.ar    1  UNL1        0.0178
     13 C         140.2308  139.1290  159.4605 C.ar    1  UNL1        0.0420
     14 C         137.8813  142.7982  161.9062 C.3     1  UNL1        0.1110
     15 N         138.5452  142.0936  160.7605 N.am    1  UNL1       -0.2979
     16 C         138.2985  140.6312  160.5349 C.2     1  UNL1        0.2654
     17 O         137.3878  139.8737  161.4550 O.2     1  UNL1       -0.2684
     18 H         139.1430  142.5908  160.1566 H       1  UNL1        0.1498
     19 C         143.6592  138.7198  162.4939 C.ar    1  UNL1        0.2207
     20 N         144.6061  139.8162  162.1048 N.ar    1  UNL1       -0.2120
     21 C         144.9676  140.8820  163.0965 C.ar    1  UNL1        0.1034
     22 C         144.3823  140.8514  164.4772 C.ar    1  UNL1        0.0415
     23 C         143.4355  139.7550  164.8663 C.ar    1  UNL1        0.1050
     24 N         143.0740  138.6892  163.8747 N.ar    1  UNL1       -0.2120
     25 C         142.8502  139.7244  166.2471 C.ar    1  UNL1        0.1198
     26 C         141.6411  140.4823  166.7092 C.ar    1  UNL1        0.0381
     27 C         141.4149  140.1568  168.1559 C.ar    1  UNL1        0.0734
     28 N         142.4843  139.1977  168.5878 N.ar    1  UNL1       -0.2515
     29 C         142.6394  138.6092  169.9588 C.3     1  UNL1        0.1534
     30 N         143.3714  138.9305  167.4081 N.ar    1  UNL1       -0.1680
     31 C         140.3129  140.6957  169.0190 C.3     1  UNL1        0.1184
     32 N         140.5450  141.9197  169.8546 N.3     1  UNL1       -0.2652
     33 C         140.9107  141.7809  171.3027 C.3     1  UNL1        0.0900
     34 C         140.4114  143.2824  169.2420 C.3     1  UNL1        0.0900
@<TRIPOS>BOND
     1    14    15    1
     2    15    16   am
     3    16    17    2
     4    16     3    1
     5     3     4   ar
     6     4     5   ar
     7     5     6    1
     8     5     7   ar
     9     7     8   ar
    10     8     9    1
    11     8    10   ar
    12    10    11   ar
    13    11     1    1
    14     1    19    1
    15    19    20   ar
    16    20    21   ar
    17    21    22   ar
    18    22    23   ar
    19    23    25    1
    20    25    26   ar
    21    26    27   ar
    22    27    31    1
    23    31    32    1
    24    32    33    1
    25    32    34    1
    26    27    28   ar
    27    28    29    1
    28    28    30   ar
    29    23    24   ar
    30    11    12   ar
    31    12    13   ar
    32    13     3   ar
    33    13     7   ar
    34    24    19   ar
    35    30    25   ar
    36    15    18    1
    37     1     2    1
