@<TRIPOS>MOLECULE
*****
 36 38 0 0 0
SMALL
GASTEIGER

@<TRIPOS>ATOM
      1 C         138.6851  138.8376  163.1349 C.2     1  UNL1        0.2496
      2 O         138.8171  137.3687  163.4083 O.2     1  UNL1       -0.2699
      3 N         138.4253  139.7902  164.2641 N.am    1  UNL1       -0.2636
      4 C         139.0686  140.3867  158.9274 C.ar    1  UNL1        0.0479
      5 C         140.2989  140.0802  159.7288 C.ar    1  UNL1        0.0147
      6 C         140.1711  139.5638  161.1313 C.ar    1  UNL1        0.0058
      7 C         138.8129  139.3540  161.7324 C.ar    1  UNL1        0.0537
      8 C         137.5826  139.6605  160.9310 C.ar    1  UNL1        0.0058
      9 C         137.7105  140.1769  159.5285 C.ar    1  UNL1        0.0147
     10 C         138.3009  140.3714  156.4454 C.3     1  UNL1        0.1122
     11 N         139.1965  140.9031  157.5249 N.pl3   1  UNL1       -0.3041
     12 C         140.2198  141.9511  157.2019 C.3     1  UNL1        0.1122
     13 C         138.2933  141.2592  163.9908 C.3     1  UNL1        0.1795
     14 C         139.4249  142.1877  164.3184 C.2     1  UNL1        0.2427
     15 O         139.1966  143.3552  165.2321 O.2     1  UNL1       -0.2732
     16 N         140.7848  141.9487  163.7323 N.am    1  UNL1       -0.3046
     17 H         140.9347  141.1825  163.1326 H       1  UNL1        0.1494
     18 C         141.9164  142.8772  164.0599 C.3     1  UNL1        0.0716
     19 C         142.9713  142.4573  165.0401 C.3     1  UNL1        0.0196
     20 C         144.1030  143.3857  165.3678 C.3     1  UNL1        0.0017
     21 C         144.1797  144.7342  164.7152 C.3     1  UNL1        0.0001
     22 C         143.1247  145.1541  163.7350 C.3     1  UNL1        0.0017
     23 C         141.9931  144.2257  163.4074 C.3     1  UNL1        0.0196
     24 C         138.2974  139.2739  165.6666 C.3     1  UNL1        0.1209
     25 C         139.4034  139.5027  166.6538 C.ar    1  UNL1       -0.0023
     26 C         139.0788  139.8526  168.0758 C.ar    1  UNL1       -0.0025
     27 C         140.1848  140.0814  169.0630 C.ar    1  UNL1        0.0043
     28 C         141.6153  139.9603  168.6282 C.ar    1  UNL1        0.0553
     29 C         141.9398  139.6104  167.2061 C.ar    1  UNL1        0.0043
     30 C         140.8338  139.3816  166.2189 C.ar    1  UNL1       -0.0025
     31 C         142.7212  140.1891  169.6153 C.2     1  UNL1        0.2677
     32 O         143.4528  141.4985  169.6318 O.2     1  UNL1       -0.2681
     33 N         143.0955  139.1085  170.5860 N.am    1  UNL1       -0.1934
     34 O         144.2015  139.3374  171.5732 O.3     1  UNL1       -0.2949
     35 H         142.6154  138.2491  170.5752 H       1  UNL1        0.1825
     36 H         144.5656  140.2280  171.4501 H       1  UNL1        0.2414
@<TRIPOS>BOND
     1    10    11    1
     2    11    12    1
     3    11     4    1
     4     4     5   ar
     5     5     6   ar
     6     6     7   ar
     7     7     1    1
     8     1     2    2
     9     1     3   am
    10     3    13    1
    11    13    14    1
    12    14    15    2
    13    14    16   am
    14    16    18    1
    15    18    19    1
    16    19    20    1
    17    20    21    1
    18    21    22    1
    19    22    23    1
    20     3    24    1
    21    24    25    1
    22    25    26   ar
    23    26    27   ar
    24    27    28   ar
    25    28    31    1
    26    31    32    2
    27    31    33   am
    28    33    34    1
    29    28    29   ar
    30    29    30   ar
    31     7     8   ar
    32     8     9   ar
    33     9     4   ar
    34    23    18    1
    35    30    25   ar
    36    16    17    1
    37    33    35    1
    38    34    36    1
@<TRIPOS>MOLECULE
*****
 36 38 0 0 0
SMALL
GASTEIGER

@<TRIPOS>ATOM
      1 C         143.8571  139.0480  163.6096 C.2     1  UNL1        0.2496
      2 O         145.2340  139.1256  164.1996 O.2     1  UNL1       -0.2699
      3 N         142.6876  138.6928  164.4791 N.am    1  UNL1       -0.2636
      4 C         143.2349  139.8807  159.2313 C.ar    1  UNL1        0.0479
      5 C         143.2445  138.4668  159.7319 C.ar    1  UNL1        0.0147
      6 C         143.4519  138.1892  161.1913 C.ar    1  UNL1        0.0058
      7 C         143.6497  139.3255  162.1502 C.ar    1  UNL1        0.0537
      8 C         143.6401  140.7395  161.6497 C.ar    1  UNL1        0.0058
      9 C         143.4327  141.0171  160.1902 C.ar    1  UNL1        0.0147
     10 C         144.1982  140.5055  156.9007 C.3     1  UNL1        0.1122
     11 N         143.0275  140.1583  157.7719 N.pl3   1  UNL1       -0.3041
     12 C         141.6495  140.0888  157.1837 C.3     1  UNL1        0.1122
     13 C         141.3106  138.6151  163.8892 C.3     1  UNL1        0.1795
     14 C         140.3387  139.7374  164.1032 C.2     1  UNL1        0.2427
     15 O         138.9749  139.4527  164.6590 O.2     1  UNL1       -0.2732
     16 N         140.7305  141.1444  163.7613 N.am    1  UNL1       -0.3046
     17 H         141.6257  141.3313  163.3965 H       1  UNL1        0.1494
     18 C         139.7586  142.2667  163.9753 C.3     1  UNL1        0.0716
     19 C         139.9141  143.1786  165.1560 C.3     1  UNL1        0.0196
     20 C         138.9421  144.3009  165.3701 C.3     1  UNL1        0.0017
     21 C         137.8147  144.5113  164.4033 C.3     1  UNL1        0.0001
     22 C         137.6592  143.5993  163.2225 C.3     1  UNL1        0.0017
     23 C         138.6312  142.4770  163.0085 C.3     1  UNL1        0.0196
     24 C         142.8950  138.4152  165.9385 C.3     1  UNL1        0.1209
     25 C         142.8334  139.5376  166.9316 C.ar    1  UNL1       -0.0023
     26 C         142.9593  140.9582  166.4667 C.ar    1  UNL1       -0.0025
     27 C         142.8977  142.0806  167.4598 C.ar    1  UNL1        0.0043
     28 C         142.7101  141.7825  168.9179 C.ar    1  UNL1        0.0553
     29 C         142.5842  140.3619  169.3829 C.ar    1  UNL1        0.0043
     30 C         142.6459  139.2395  168.3897 C.ar    1  UNL1       -0.0025
     31 C         142.6485  142.9049  169.9111 C.2     1  UNL1        0.2677
     32 O         141.3402  143.5794  170.2004 O.2     1  UNL1       -0.2681
     33 N         143.8950  143.3529  170.6149 N.am    1  UNL1       -0.1934
     34 O         143.8334  144.4754  171.6080 O.3     1  UNL1       -0.2949
     35 H         144.7537  142.9103  170.4250 H       1  UNL1        0.1825
     36 H         142.9208  144.7971  171.6762 H       1  UNL1        0.2414
@<TRIPOS>BOND
     1    10    11    1
     2    11    12    1
     3    11     4    1
     4     4     5   ar
     5     5     6   ar
     6     6     7   ar
     7     7     1    1
     8     1     2    2
     9     1     3   am
    10     3    13    1
    11    13    14    1
    12    14    15    2
    13    14    16   am
    14    16    18    1
    15    18    19    1
    16    19    20    1
    17    20    21    1
    18    21    22    1
    19    22    23    1
    20     3    24    1
    21    24    25    1
    22    25    26   ar
    23    26    27   ar
    24    27    28   ar
    25    28    31    1
    26    31    32    2
    27    31    33   am
    28    33    34    1
    29    28    29   ar
    30    29    30   ar
    31     7     8   ar
    32     8     9   ar
    33     9     4   ar
    34    23    18    1
    35    30    25   ar
    36    16    17    1
    37    33    35    1
    38    34    36    1
@<TRIPOS>MOLECULE
*****
 36 38 0 0 0
SMALL
GASTEIGER

@<TRIPOS>ATOM
      1 C         144.1475  139.1785  164.1773 C.2     1  UNL1        0.2496
      2 O         145.5170  139.4525  164.7243 O.2     1  UNL1       -0.2699
      3 N         143.0251  138.8258  165.1077 N.am    1  UNL1       -0.2636
      4 C         143.4061  139.4146  159.7451 C.ar    1  UNL1        0.0479
      5 C         143.3758  138.0861  160.4409 C.ar    1  UNL1        0.0147
      6 C         143.6230  138.0074  161.9183 C.ar    1  UNL1        0.0058
      7 C         143.9004  139.2572  162.6999 C.ar    1  UNL1        0.0537
      8 C         143.9307  140.5857  162.0041 C.ar    1  UNL1        0.0058
      9 C         143.6836  140.6644  160.5267 C.ar    1  UNL1        0.0147
     10 C         143.5460  140.7269  157.5072 C.3     1  UNL1        0.1122
     11 N         143.1590  139.4933  158.2677 N.pl3   1  UNL1       -0.3041
     12 C         142.5250  138.3383  157.5508 C.3     1  UNL1        0.1122
     13 C         141.6555  138.5517  164.5608 C.3     1  UNL1        0.1795
     14 C         140.6097  139.6268  164.5838 C.2     1  UNL1        0.2427
     15 O         139.2605  139.3481  165.1770 O.2     1  UNL1       -0.2732
     16 N         140.9132  140.9806  164.0136 N.am    1  UNL1       -0.3046
     17 H         141.7987  141.1636  163.6242 H       1  UNL1        0.1494
     18 C         139.8675  142.0557  164.0366 C.3     1  UNL1        0.0716
     19 C         139.9064  143.1172  165.0957 C.3     1  UNL1        0.0196
     20 C         138.8606  144.1924  165.1187 C.3     1  UNL1        0.0017
     21 C         137.7760  144.2060  164.0827 C.3     1  UNL1        0.0001
     22 C         137.7371  143.1444  163.0236 C.3     1  UNL1        0.0017
     23 C         138.7828  142.0693  163.0006 C.3     1  UNL1        0.0196
     24 C         143.2722  138.7471  166.5852 C.3     1  UNL1        0.1209
     25 C         142.6355  139.7451  167.5063 C.ar    1  UNL1       -0.0023
     26 C         142.0358  139.2917  168.8043 C.ar    1  UNL1       -0.0025
     27 C         141.3990  140.2897  169.7254 C.ar    1  UNL1        0.0043
     28 C         141.3620  141.7412  169.3486 C.ar    1  UNL1        0.0553
     29 C         141.9617  142.1945  168.0506 C.ar    1  UNL1        0.0043
     30 C         142.5985  141.1964  167.1294 C.ar    1  UNL1       -0.0025
     31 C         140.7253  142.7392  170.2697 C.2     1  UNL1        0.2677
     32 O         140.5241  142.4019  171.7174 O.2     1  UNL1       -0.2681
     33 N         140.2897  144.0745  169.7432 N.am    1  UNL1       -0.1934
     34 O         139.6530  145.0725  170.6644 O.3     1  UNL1       -0.2949
     35 H         140.4218  144.2959  168.7930 H       1  UNL1        0.1825
     36 H         139.5982  144.6988  171.5579 H       1  UNL1        0.2414
@<TRIPOS>BOND
     1    10    11    1
     2    11    12    1
     3    11     4    1
     4     4     5   ar
     5     5     6   ar
     6     6     7   ar
     7     7     1    1
     8     1     2    2
     9     1     3   am
    10     3    13    1
    11    13    14    1
    12    14    15    2
    13    14    16   am
    14    16    18    1
    15    18    19    1
    16    19    20    1
    17    20    21    1
    18    21    22    1
    19    22    23    1
    20     3    24    1
    21    24    25    1
    22    25    26   ar
    23    26    27   ar
    24    27    28   ar
    25    28    31    1
    26    31    32    2
    27    31    33   am
    28    33    34    1
    29    28    29   ar
    30    29    30   ar
    31     7     8   ar
    32     8     9   ar
    33     9     4   ar
    34    23    18    1
    35    30    25   ar
    36    16    17    1
    37    33    35    1
    38    34    36    1
@<TRIPOS>MOLECULE
*****
 36 38 0 0 0
SMALL
GASTEIGER

@<TRIPOS>ATOM
      1 C         141.9928  137.9500  164.1490 C.2     1  UNL1        0.2496
      2 O         141.5037  136.6711  164.7615 O.2     1  UNL1       -0.2699
      3 N         142.5453  139.0368  165.0229 N.am    1  UNL1       -0.2636
      4 C         141.8029  138.5264  159.6901 C.ar    1  UNL1        0.0479
      5 C         143.0904  138.1119  160.3386 C.ar    1  UNL1        0.0147
      6 C         143.1537  137.9198  161.8249 C.ar    1  UNL1        0.0058
      7 C         141.9295  138.1421  162.6627 C.ar    1  UNL1        0.0537
      8 C         140.6421  138.5566  162.0142 C.ar    1  UNL1        0.0058
      9 C         140.5788  138.7487  160.5279 C.ar    1  UNL1        0.0147
     10 C         142.3444  137.6953  157.2889 C.3     1  UNL1        0.1122
     11 N         141.7396  138.7185  158.2038 N.pl3   1  UNL1       -0.3041
     12 C         141.0716  139.9339  157.6325 C.3     1  UNL1        0.1122
     13 C         143.0345  140.3158  164.4105 C.3     1  UNL1        0.1795
     14 C         142.0794  141.4482  164.1756 C.2     1  UNL1        0.2427
     15 O         142.6022  142.8099  163.8254 O.2     1  UNL1       -0.2732
     16 N         140.6015  141.2191  164.2909 N.am    1  UNL1       -0.3046
     17 H         140.2583  140.3254  164.5207 H       1  UNL1        0.1494
     18 C         139.6464  142.3516  164.0560 C.3     1  UNL1        0.0716
     19 C         139.4852  143.4239  165.0924 C.3     1  UNL1        0.0196
     20 C         138.5300  144.5565  164.8575 C.3     1  UNL1        0.0017
     21 C         137.7361  144.6167  163.5863 C.3     1  UNL1        0.0001
     22 C         137.8974  143.5443  162.5499 C.3     1  UNL1        0.0017
     23 C         138.8525  142.4118  162.7847 C.3     1  UNL1        0.0196
     24 C         142.6086  138.8447  166.5092 C.3     1  UNL1        0.1209
     25 C         142.0280  139.8812  167.4248 C.ar    1  UNL1       -0.0023
     26 C         140.5468  139.9330  167.6555 C.ar    1  UNL1       -0.0025
     27 C         139.9661  140.9696  168.5712 C.ar    1  UNL1        0.0043
     28 C         140.8668  141.9544  169.2561 C.ar    1  UNL1        0.0553
     29 C         142.3480  141.9025  169.0254 C.ar    1  UNL1        0.0043
     30 C         142.9286  140.8659  168.1097 C.ar    1  UNL1       -0.0025
     31 C         140.2862  142.9909  170.1718 C.2     1  UNL1        0.2677
     32 O         139.8587  142.6117  171.5587 O.2     1  UNL1       -0.2681
     33 N         140.1330  144.4067  169.7005 N.am    1  UNL1       -0.1934
     34 O         139.5523  145.4432  170.6162 O.3     1  UNL1       -0.2949
     35 H         140.4135  144.6556  168.7903 H       1  UNL1        0.1825
     36 H         139.3306  145.0348  171.4677 H       1  UNL1        0.2414
@<TRIPOS>BOND
     1    10    11    1
     2    11    12    1
     3    11     4    1
     4     4     5   ar
     5     5     6   ar
     6     6     7   ar
     7     7     1    1
     8     1     2    2
     9     1     3   am
    10     3    13    1
    11    13    14    1
    12    14    15    2
    13    14    16   am
    14    16    18    1
    15    18    19    1
    16    19    20    1
    17    20    21    1
    18    21    22    1
    19    22    23    1
    20     3    24    1
    21    24    25    1
    22    25    26   ar
    23    26    27   ar
    24    27    28   ar
    25    28    31    1
    26    31    32    2
    27    31    33   am
    28    33    34    1
    29    28    29   ar
    30    29    30   ar
    31     7     8   ar
    32     8     9   ar
    33     9     4   ar
    34    23    18    1
    35    30    25   ar
    36    16    17    1
    37    33    35    1
    38    34    36    1
@<TRIPOS>MOLECULE
*****
 36 38 0 0 0
SMALL
GASTEIGER

@<TRIPOS>ATOM
      1 C         143.4907  143.5067  163.0994 C.2     1  UNL1        0.2496
      2 O         143.9317  144.8591  163.5752 O.2     1  UNL1       -0.2699
      3 N         143.4979  142.3406  164.0429 N.am    1  UNL1       -0.2636
      4 C         142.1459  142.9476  158.8416 C.ar    1  UNL1        0.0479
      5 C         141.1681  143.4052  159.8831 C.ar    1  UNL1        0.0147
      6 C         141.6164  143.5915  161.3023 C.ar    1  UNL1        0.0058
      7 C         143.0424  143.3203  161.6802 C.ar    1  UNL1        0.0537
      8 C         144.0202  142.8628  160.6388 C.ar    1  UNL1        0.0058
      9 C         143.5719  142.6764  159.2195 C.ar    1  UNL1        0.0147
     10 C         140.3416  142.1891  157.1331 C.3     1  UNL1        0.1122
     11 N         141.6976  142.7613  157.4224 N.pl3   1  UNL1       -0.3041
     12 C         142.6053  143.1472  156.2923 C.3     1  UNL1        0.1122
     13 C         143.0569  140.9881  163.5671 C.3     1  UNL1        0.1795
     14 C         141.7391  140.4285  164.0147 C.2     1  UNL1        0.2427
     15 O         140.4825  140.7890  163.2792 O.2     1  UNL1       -0.2732
     16 N         141.6779  139.5085  165.1979 N.am    1  UNL1       -0.3046
     17 H         142.5027  139.2719  165.6807 H       1  UNL1        0.1494
     18 C         140.3602  138.9490  165.6455 C.3     1  UNL1        0.0716
     19 C         139.5965  139.6196  166.7486 C.3     1  UNL1        0.0196
     20 C         138.2786  139.0601  167.1963 C.3     1  UNL1        0.0017
     21 C         137.7246  137.8299  166.5408 C.3     1  UNL1        0.0001
     22 C         138.4884  137.1592  165.4376 C.3     1  UNL1        0.0017
     23 C         139.8062  137.7188  164.9900 C.3     1  UNL1        0.0196
     24 C         143.9462  142.5269  165.4622 C.3     1  UNL1        0.1209
     25 C         142.9384  142.5272  166.5731 C.ar    1  UNL1       -0.0023
     26 C         141.5057  142.8662  166.2860 C.ar    1  UNL1       -0.0025
     27 C         140.4979  142.8665  167.3969 C.ar    1  UNL1        0.0043
     28 C         140.9227  142.5277  168.7951 C.ar    1  UNL1        0.0553
     29 C         142.3554  142.1887  169.0822 C.ar    1  UNL1        0.0043
     30 C         143.3633  142.1884  167.9712 C.ar    1  UNL1       -0.0025
     31 C         139.9149  142.5280  169.9061 C.2     1  UNL1        0.2677
     32 O         139.1650  141.2722  170.2387 O.2     1  UNL1       -0.2681
     33 N         139.6570  143.7841  170.6844 N.am    1  UNL1       -0.1934
     34 O         138.6491  143.7843  171.7954 O.3     1  UNL1       -0.2949
     35 H         140.1492  144.6083  170.4661 H       1  UNL1        0.1825
     36 H         138.2587  142.9002  171.8780 H       1  UNL1        0.2414
@<TRIPOS>BOND
     1    10    11    1
     2    11    12    1
     3    11     4    1
     4     4     5   ar
     5     5     6   ar
     6     6     7   ar
     7     7     1    1
     8     1     2    2
     9     1     3   am
    10     3    13    1
    11    13    14    1
    12    14    15    2
    13    14    16   am
    14    16    18    1
    15    18    19    1
    16    19    20    1
    17    20    21    1
    18    21    22    1
    19    22    23    1
    20     3    24    1
    21    24    25    1
    22    25    26   ar
    23    26    27   ar
    24    27    28   ar
    25    28    31    1
    26    31    32    2
    27    31    33   am
    28    33    34    1
    29    28    29   ar
    30    29    30   ar
    31     7     8   ar
    32     8     9   ar
    33     9     4   ar
    34    23    18    1
    35    30    25   ar
    36    16    17    1
    37    33    35    1
    38    34    36    1
@<TRIPOS>MOLECULE
*****
 36 38 0 0 0
SMALL
GASTEIGER

@<TRIPOS>ATOM
      1 C         144.2756  141.4632  163.3191 C.2     1  UNL1        0.2496
      2 O         145.6484  141.4174  163.9218 O.2     1  UNL1       -0.2699
      3 N         143.1426  142.0847  164.0806 N.am    1  UNL1       -0.2636
      4 C         143.5565  139.7360  159.2265 C.ar    1  UNL1        0.0479
      5 C         143.7663  141.2120  159.3913 C.ar    1  UNL1        0.0147
      6 C         144.0060  141.7878  160.7555 C.ar    1  UNL1        0.0058
      7 C         144.0359  140.8875  161.9549 C.ar    1  UNL1        0.0537
      8 C         143.8261  139.4114  161.7901 C.ar    1  UNL1        0.0058
      9 C         143.5864  138.8357  160.4259 C.ar    1  UNL1        0.0147
     10 C         143.8652  139.8517  156.6494 C.3     1  UNL1        0.1122
     11 N         143.3168  139.1602  157.8623 N.pl3   1  UNL1       -0.3041
     12 C         142.5286  137.8930  157.7109 C.3     1  UNL1        0.1122
     13 C         141.7697  142.1305  163.4778 C.3     1  UNL1        0.1795
     14 C         140.6675  141.2951  164.0584 C.2     1  UNL1        0.2427
     15 O         139.2403  141.7361  163.9212 O.2     1  UNL1       -0.2732
     16 N         140.9924  140.0186  164.7762 N.am    1  UNL1       -0.3046
     17 H         141.9290  139.7292  164.8663 H       1  UNL1        0.1494
     18 C         139.8901  139.1832  165.3568 C.3     1  UNL1        0.0716
     19 C         139.5879  137.8329  164.7778 C.3     1  UNL1        0.0196
     20 C         138.4856  136.9974  165.3583 C.3     1  UNL1        0.0017
     21 C         137.6856  137.5123  166.5180 C.3     1  UNL1        0.0001
     22 C         137.9878  138.8627  167.0971 C.3     1  UNL1        0.0017
     23 C         139.0901  139.6981  166.5165 C.3     1  UNL1        0.0196
     24 C         143.3823  142.6604  165.4448 C.3     1  UNL1        0.1209
     25 C         142.5640  142.1915  166.6111 C.ar    1  UNL1       -0.0023
     26 C         141.3389  142.9530  167.0224 C.ar    1  UNL1       -0.0025
     27 C         140.5206  142.4840  168.1887 C.ar    1  UNL1        0.0043
     28 C         140.9275  141.2534  168.9439 C.ar    1  UNL1        0.0553
     29 C         142.1527  140.4919  168.5327 C.ar    1  UNL1        0.0043
     30 C         142.9710  140.9610  167.3663 C.ar    1  UNL1       -0.0025
     31 C         140.1093  140.7845  170.1103 C.2     1  UNL1        0.2677
     32 O         139.0698  141.6858  170.7081 O.2     1  UNL1       -0.2681
     33 N         140.3304  139.4142  170.6790 N.am    1  UNL1       -0.1934
     34 O         139.5120  138.9452  171.8454 O.3     1  UNL1       -0.2949
     35 H         141.0125  138.8226  170.2867 H       1  UNL1        0.1825
     36 H         138.8920  139.6437  172.1071 H       1  UNL1        0.2414
@<TRIPOS>BOND
     1    10    11    1
     2    11    12    1
     3    11     4    1
     4     4     5   ar
     5     5     6   ar
     6     6     7   ar
     7     7     1    1
     8     1     2    2
     9     1     3   am
    10     3    13    1
    11    13    14    1
    12    14    15    2
    13    14    16   am
    14    16    18    1
    15    18    19    1
    16    19    20    1
    17    20    21    1
    18    21    22    1
    19    22    23    1
    20     3    24    1
    21    24    25    1
    22    25    26   ar
    23    26    27   ar
    24    27    28   ar
    25    28    31    1
    26    31    32    2
    27    31    33   am
    28    33    34    1
    29    28    29   ar
    30    29    30   ar
    31     7     8   ar
    32     8     9   ar
    33     9     4   ar
    34    23    18    1
    35    30    25   ar
    36    16    17    1
    37    33    35    1
    38    34    36    1
@<TRIPOS>MOLECULE
*****
 36 38 0 0 0
SMALL
GASTEIGER

@<TRIPOS>ATOM
      1 C         143.1453  142.4055  162.3726 C.2     1  UNL1        0.2496
      2 O         143.1232  143.9018  162.2703 O.2     1  UNL1       -0.2699
      3 N         143.4443  141.7480  163.6872 N.am    1  UNL1       -0.2636
      4 C         142.3146  139.8891  158.7356 C.ar    1  UNL1        0.0479
      5 C         143.6964  140.4183  158.9819 C.ar    1  UNL1        0.0147
      6 C         143.9733  141.2571  160.1942 C.ar    1  UNL1        0.0058
      7 C         142.8684  141.5667  161.1603 C.ar    1  UNL1        0.0537
      8 C         141.4867  141.0376  160.9140 C.ar    1  UNL1        0.0058
      9 C         141.2098  140.1988  159.7017 C.ar    1  UNL1        0.0147
     10 C         142.1568  137.5571  157.6012 C.3     1  UNL1        0.1122
     11 N         142.0377  139.0503  157.5233 N.pl3   1  UNL1       -0.3041
     12 C         141.6418  139.7047  156.2330 C.3     1  UNL1        0.1122
     13 C         143.4664  140.2516  163.7895 C.3     1  UNL1        0.1795
     14 C         142.4028  139.5374  164.5697 C.2     1  UNL1        0.2427
     15 O         142.7844  138.4868  165.5700 O.2     1  UNL1       -0.2732
     16 N         140.9577  139.8739  164.3496 N.am    1  UNL1       -0.3046
     17 H         140.7073  140.5634  163.6930 H       1  UNL1        0.1494
     18 C         139.8941  139.1597  165.1297 C.3     1  UNL1        0.0716
     19 C         139.4526  137.7878  164.7139 C.3     1  UNL1        0.0196
     20 C         138.3890  137.0735  165.4941 C.3     1  UNL1        0.0017
     21 C         137.7669  137.7312  166.6901 C.3     1  UNL1        0.0001
     22 C         138.2084  139.1032  167.1059 C.3     1  UNL1        0.0017
     23 C         139.2720  139.8174  166.3257 C.3     1  UNL1        0.0196
     24 C         143.7212  142.5868  164.8995 C.3     1  UNL1        0.1209
     25 C         142.7855  142.5437  166.0710 C.ar    1  UNL1       -0.0023
     26 C         141.3576  142.9731  165.9067 C.ar    1  UNL1       -0.0025
     27 C         140.4219  142.9300  167.0782 C.ar    1  UNL1        0.0043
     28 C         140.9139  142.4575  168.4141 C.ar    1  UNL1        0.0553
     29 C         142.3417  142.0281  168.5785 C.ar    1  UNL1        0.0043
     30 C         143.2775  142.0713  167.4069 C.ar    1  UNL1       -0.0025
     31 C         139.9782  142.4144  169.5856 C.2     1  UNL1        0.2677
     32 O         139.2195  141.1576  169.8937 O.2     1  UNL1       -0.2681
     33 N         139.8011  143.6281  170.4491 N.am    1  UNL1       -0.1934
     34 O         138.8652  143.5850  171.6206 O.3     1  UNL1       -0.2949
     35 H         140.2990  144.4530  170.2469 H       1  UNL1        0.1825
     36 H         138.4589  142.7060  171.6777 H       1  UNL1        0.2414
@<TRIPOS>BOND
     1    10    11    1
     2    11    12    1
     3    11     4    1
     4     4     5   ar
     5     5     6   ar
     6     6     7   ar
     7     7     1    1
     8     1     2    2
     9     1     3   am
    10     3    13    1
    11    13    14    1
    12    14    15    2
    13    14    16   am
    14    16    18    1
    15    18    19    1
    16    19    20    1
    17    20    21    1
    18    21    22    1
    19    22    23    1
    20     3    24    1
    21    24    25    1
    22    25    26   ar
    23    26    27   ar
    24    27    28   ar
    25    28    31    1
    26    31    32    2
    27    31    33   am
    28    33    34    1
    29    28    29   ar
    30    29    30   ar
    31     7     8   ar
    32     8     9   ar
    33     9     4   ar
    34    23    18    1
    35    30    25   ar
    36    16    17    1
    37    33    35    1
    38    34    36    1
@<TRIPOS>MOLECULE
*****
 36 38 0 0 0
SMALL
GASTEIGER

@<TRIPOS>ATOM
      1 C         142.6858  141.7972  161.9753 C.2     1  UNL1        0.2496
      2 O         144.0908  142.1618  162.3533 O.2     1  UNL1       -0.2699
      3 N         141.5285  142.4559  162.6657 N.am    1  UNL1       -0.2636
      4 C         141.9425  138.7270  158.7704 C.ar    1  UNL1        0.0479
      5 C         141.9551  140.1861  158.4228 C.ar    1  UNL1        0.0147
      6 C         142.2029  141.2095  159.4911 C.ar    1  UNL1        0.0058
      7 C         142.4380  140.7738  160.9070 C.ar    1  UNL1        0.0537
      8 C         142.4254  139.3147  161.2546 C.ar    1  UNL1        0.0058
      9 C         142.1777  138.2913  160.1862 C.ar    1  UNL1        0.0147
     10 C         140.3584  137.6353  157.0244 C.3     1  UNL1        0.1122
     11 N         141.6948  137.7037  157.7020 N.pl3   1  UNL1       -0.3041
     12 C         142.7835  136.7487  157.3113 C.3     1  UNL1        0.1122
     13 C         140.1233  142.0914  162.2878 C.3     1  UNL1        0.1795
     14 C         139.3359  141.1484  163.1483 C.2     1  UNL1        0.2427
     15 O         137.8428  141.0841  163.0190 O.2     1  UNL1       -0.2732
     16 N         140.0414  140.2696  164.1383 N.am    1  UNL1       -0.3046
     17 H         141.0214  140.3118  164.2232 H       1  UNL1        0.1494
     18 C         139.2540  139.3267  164.9989 C.3     1  UNL1        0.0716
     19 C         139.0573  137.9038  164.5670 C.3     1  UNL1        0.0196
     20 C         138.2698  136.9607  165.4276 C.3     1  UNL1        0.0017
     21 C         137.6790  137.4407  166.7201 C.3     1  UNL1        0.0001
     22 C         137.8757  138.8636  167.1521 C.3     1  UNL1        0.0017
     23 C         138.6632  139.8066  166.2915 C.3     1  UNL1        0.0196
     24 C         141.7762  143.4793  163.7340 C.3     1  UNL1        0.1209
     25 C         141.8239  143.0634  165.1744 C.ar    1  UNL1       -0.0023
     26 C         140.5777  143.1035  166.0083 C.ar    1  UNL1       -0.0025
     27 C         140.6255  142.6876  167.4487 C.ar    1  UNL1        0.0043
     28 C         141.9194  142.2316  168.0552 C.ar    1  UNL1        0.0553
     29 C         143.1656  142.1916  167.2213 C.ar    1  UNL1        0.0043
     30 C         143.1178  142.6075  165.7809 C.ar    1  UNL1       -0.0025
     31 C         141.9671  141.8157  169.4956 C.2     1  UNL1        0.2677
     32 O         141.9359  140.3603  169.8575 O.2     1  UNL1       -0.2681
     33 N         142.0461  142.8552  170.5742 N.am    1  UNL1       -0.1934
     34 O         142.0938  142.4392  172.0146 O.3     1  UNL1       -0.2949
     35 H         142.0666  143.8104  170.3367 H       1  UNL1        0.1825
     36 H         142.0653  141.4714  172.0728 H       1  UNL1        0.2414
@<TRIPOS>BOND
     1    10    11    1
     2    11    12    1
     3    11     4    1
     4     4     5   ar
     5     5     6   ar
     6     6     7   ar
     7     7     1    1
     8     1     2    2
     9     1     3   am
    10     3    13    1
    11    13    14    1
    12    14    15    2
    13    14    16   am
    14    16    18    1
    15    18    19    1
    16    19    20    1
    17    20    21    1
    18    21    22    1
    19    22    23    1
    20     3    24    1
    21    24    25    1
    22    25    26   ar
    23    26    27   ar
    24    27    28   ar
    25    28    31    1
    26    31    32    2
    27    31    33   am
    28    33    34    1
    29    28    29   ar
    30    29    30   ar
    31     7     8   ar
    32     8     9   ar
    33     9     4   ar
    34    23    18    1
    35    30    25   ar
    36    16    17    1
    37    33    35    1
    38    34    36    1
@<TRIPOS>MOLECULE
*****
 36 38 0 0 0
SMALL
GASTEIGER

@<TRIPOS>ATOM
      1 C         140.3904  137.8475  162.8078 C.2     1  UNL1        0.2496
      2 O         140.7743  136.5203  163.3917 O.2     1  UNL1       -0.2699
      3 N         139.7471  138.8899  163.6735 N.am    1  UNL1       -0.2636
      4 C         141.1685  138.7021  158.4587 C.ar    1  UNL1        0.0479
      5 C         139.7605  138.5497  158.9529 C.ar    1  UNL1        0.0147
      6 C         139.5011  138.2648  160.4025 C.ar    1  UNL1        0.0058
      7 C         140.6498  138.1324  161.3581 C.ar    1  UNL1        0.0537
      8 C         142.0578  138.2848  160.8639 C.ar    1  UNL1        0.0058
      9 C         142.3171  138.5697  159.4142 C.ar    1  UNL1        0.0147
     10 C         142.6307  138.3990  156.3327 C.3     1  UNL1        0.1122
     11 N         141.4279  138.9870  157.0090 N.pl3   1  UNL1       -0.3041
     12 C         140.4845  139.8598  156.2357 C.3     1  UNL1        0.1122
     13 C         139.3632  140.2172  163.0896 C.3     1  UNL1        0.1795
     14 C         140.3609  141.3367  163.0518 C.2     1  UNL1        0.2427
     15 O         140.9811  141.7448  161.7484 O.2     1  UNL1       -0.2732
     16 N         140.7384  142.0481  164.3173 N.am    1  UNL1       -0.3046
     17 H         140.3313  141.7803  165.1727 H       1  UNL1        0.1494
     18 C         141.7360  143.1676  164.2794 C.3     1  UNL1        0.0716
     19 C         141.3180  144.5290  163.8086 C.3     1  UNL1        0.0196
     20 C         142.3157  145.6486  163.7707 C.3     1  UNL1        0.0017
     21 C         143.7313  145.4066  164.2036 C.3     1  UNL1        0.0001
     22 C         144.1493  144.0450  164.6744 C.3     1  UNL1        0.0017
     23 C         143.1516  142.9256  164.7123 C.3     1  UNL1        0.0196
     24 C         139.4878  138.6050  165.1232 C.3     1  UNL1        0.1209
     25 C         140.3786  139.1969  166.1749 C.ar    1  UNL1       -0.0023
     26 C         139.7805  139.9336  167.3366 C.ar    1  UNL1       -0.0025
     27 C         140.6713  140.5255  168.3883 C.ar    1  UNL1        0.0043
     28 C         142.1602  140.3806  168.2784 C.ar    1  UNL1        0.0553
     29 C         142.7584  139.6439  167.1167 C.ar    1  UNL1        0.0043
     30 C         141.8675  139.0520  166.0650 C.ar    1  UNL1       -0.0025
     31 C         143.0510  140.9724  169.3301 C.2     1  UNL1        0.2677
     32 O         143.4508  140.1539  170.5219 O.2     1  UNL1       -0.2681
     33 N         143.5421  142.3828  169.1901 N.am    1  UNL1       -0.1934
     34 O         144.4330  142.9747  170.2419 O.3     1  UNL1       -0.2949
     35 H         143.2798  142.9201  168.4080 H       1  UNL1        0.1825
     36 H         144.5928  142.3177  170.9374 H       1  UNL1        0.2414
@<TRIPOS>BOND
     1    10    11    1
     2    11    12    1
     3    11     4    1
     4     4     5   ar
     5     5     6   ar
     6     6     7   ar
     7     7     1    1
     8     1     2    2
     9     1     3   am
    10     3    13    1
    11    13    14    1
    12    14    15    2
    13    14    16   am
    14    16    18    1
    15    18    19    1
    16    19    20    1
    17    20    21    1
    18    21    22    1
    19    22    23    1
    20     3    24    1
    21    24    25    1
    22    25    26   ar
    23    26    27   ar
    24    27    28   ar
    25    28    31    1
    26    31    32    2
    27    31    33   am
    28    33    34    1
    29    28    29   ar
    30    29    30   ar
    31     7     8   ar
    32     8     9   ar
    33     9     4   ar
    34    23    18    1
    35    30    25   ar
    36    16    17    1
    37    33    35    1
    38    34    36    1
