@<TRIPOS>MOLECULE
*****
 32 36 0 0 0
SMALL
GASTEIGER

@<TRIPOS>ATOM
      1 C         140.9777  139.7435  165.5067 C.ar    1  UNL1        0.0015
      2 C         139.7891  138.8861  165.1870 C.ar    1  UNL1        0.0031
      3 C         138.7220  138.6686  166.2185 C.ar    1  UNL1        0.0366
      4 C         138.8435  139.3084  167.5697 C.ar    1  UNL1        0.1362
      5 C         140.0321  140.1658  167.8894 C.ar    1  UNL1        0.0357
      6 C         141.0992  140.3833  166.8579 C.ar    1  UNL1        0.0007
      7 C         140.1536  140.8056  169.2407 C.3     1  UNL1        0.1582
      8 C         140.4106  141.5068  170.5416 C.3     1  UNL1        0.2351
      9 O         141.7097  142.2469  170.4205 O.2     1  UNL1       -0.4478
     10 C         142.2557  142.0031  169.0449 C.2     1  UNL1        0.2770
     11 N         143.5380  142.5534  168.4949 N.pl3   1  UNL1       -0.3133
     12 N         141.2939  141.1123  168.3156 N.2     1  UNL1       -0.2202
     13 C         139.0865  140.5881  170.2722 C.3     1  UNL1        0.1174
     14 C         139.0526  140.4096  169.8952 C.3     1  UNL1        0.1502
     15 O         139.0883  140.5972  170.2915 O.3     1  UNL1       -0.3532
     16 C         139.0526  140.4096  169.8952 C.3     1  UNL1        0.1502
     17 C         137.8980  139.7307  169.9525 C.3     1  UNL1        0.1726
     18 O         137.7765  139.0909  168.6012 O.3     1  UNL1       -0.4792
     19 H         144.1050  143.1325  169.0539 H       1  UNL1        0.1466
     20 H         143.8128  142.3354  167.5750 H       1  UNL1        0.1466
     21 C         142.9996  139.5235  162.0988 C.ar    1  UNL1        0.0608
     22 C         144.1788  140.3960  162.4120 C.ar    1  UNL1        0.1071
     23 N         144.2910  141.0510  163.7567 N.ar    1  UNL1       -0.2417
     24 C         143.2240  140.8335  164.7884 C.ar    1  UNL1        0.0989
     25 C         142.0447  139.9610  164.4751 C.ar    1  UNL1        0.0198
     26 C         141.9325  139.3060  163.1303 C.ar    1  UNL1        0.0113
     27 C         142.6629  137.5586  158.0645 C.3     1  UNL1        0.0903
     28 C         142.7751  138.2136  159.4092 C.1     1  UNL1       -0.0853
     29 C         142.8873  138.8685  160.7541 C.1     1  UNL1       -0.0628
     30 C         136.8309  139.5132  170.9840 C.3     1  UNL1        0.0438
     31 C         136.2404  138.1477  171.1759 C.3     1  UNL1        0.0037
     32 C         135.5280  137.8112  172.4523 C.3     1  UNL1        0.0001
@<TRIPOS>BOND
     1    27    28    1
     2    28    29    3
     3    29    21    1
     4    21    22   ar
     5    22    23   ar
     6    23    24   ar
     7    24    25   ar
     8    25     1    1
     9     1     2   ar
    10     2     3   ar
    11     3     4   ar
    12     4     5   ar
    13     5     6   ar
    14     5     7    1
    15     7     8    1
    16     8     9    1
    17     9    10    1
    18    10    11    1
    19    10    12    2
    20     7    13    1
    21    13    14    1
    22    14    15    1
    23    15    16    1
    24    13    17    1
    25    17    30    1
    26    30    31    1
    27    31    32    1
    28    17    18    1
    29    25    26   ar
    30    26    21   ar
    31     6     1   ar
    32    12     7    1
    33    16    13    1
    34    18     4    1
    35    11    19    1
    36    11    20    1
@<TRIPOS>MOLECULE
*****
 32 36 0 0 0
SMALL
GASTEIGER

@<TRIPOS>ATOM
      1 C         139.3573  140.0605  166.3528 C.ar    1  UNL1        0.0015
      2 C         139.3476  138.6576  165.8217 C.ar    1  UNL1        0.0031
      3 C         138.9497  138.3970  164.3991 C.ar    1  UNL1        0.0366
      4 C         138.5615  139.5392  163.5076 C.ar    1  UNL1        0.1362
      5 C         138.5712  140.9419  164.0387 C.ar    1  UNL1        0.0357
      6 C         138.9691  141.2026  165.4613 C.ar    1  UNL1        0.0007
      7 C         138.1829  142.0841  163.1472 C.3     1  UNL1        0.1582
      8 C         137.8214  143.3204  162.3784 C.3     1  UNL1        0.2351
      9 O         137.9709  144.4973  163.2964 O.2     1  UNL1       -0.4478
     10 C         138.4248  143.9884  164.6324 C.2     1  UNL1        0.2770
     11 N         138.6994  144.8241  165.8473 N.pl3   1  UNL1       -0.3133
     12 N         138.5558  142.4970  164.5402 N.2     1  UNL1       -0.2202
     13 C         137.7850  141.8235  161.7246 C.3     1  UNL1        0.1174
     14 C         137.8933  141.5048  161.9733 C.3     1  UNL1        0.1502
     15 O         137.7795  141.8397  161.7119 O.3     1  UNL1       -0.3532
     16 C         137.8933  141.5048  161.9733 C.3     1  UNL1        0.1502
     17 C         137.7753  140.4207  161.1936 C.3     1  UNL1        0.1726
     18 O         138.1635  139.2785  162.0851 O.3     1  UNL1       -0.4792
     19 H         138.5841  145.8011  165.8091 H       1  UNL1        0.1466
     20 H         138.9950  144.3957  166.6829 H       1  UNL1        0.1466
     21 C         141.4519  141.2693  169.4995 C.ar    1  UNL1        0.0608
     22 C         140.5512  140.8424  170.6205 C.ar    1  UNL1        0.1071
     23 N         139.2526  140.1550  170.3189 N.ar    1  UNL1       -0.2417
     24 C         138.8546  139.8943  168.8963 C.ar    1  UNL1        0.0989
     25 C         139.7553  140.3211  167.7753 C.ar    1  UNL1        0.0198
     26 C         141.0539  141.0086  168.0769 C.ar    1  UNL1        0.0113
     27 C         145.3477  143.3317  170.4042 C.3     1  UNL1        0.0903
     28 C         144.0491  142.6443  170.1026 C.1     1  UNL1       -0.0853
     29 C         142.7504  141.9568  169.8010 C.1     1  UNL1       -0.0628
     30 C         137.3774  140.1600  159.7710 C.3     1  UNL1        0.0438
     31 C         138.4303  139.9298  158.7278 C.3     1  UNL1        0.0037
     32 C         139.5561  140.9085  158.5697 C.3     1  UNL1        0.0001
@<TRIPOS>BOND
     1    27    28    1
     2    28    29    3
     3    29    21    1
     4    21    22   ar
     5    22    23   ar
     6    23    24   ar
     7    24    25   ar
     8    25     1    1
     9     1     2   ar
    10     2     3   ar
    11     3     4   ar
    12     4     5   ar
    13     5     6   ar
    14     5     7    1
    15     7     8    1
    16     8     9    1
    17     9    10    1
    18    10    11    1
    19    10    12    2
    20     7    13    1
    21    13    14    1
    22    14    15    1
    23    15    16    1
    24    13    17    1
    25    17    30    1
    26    30    31    1
    27    31    32    1
    28    17    18    1
    29    25    26   ar
    30    26    21   ar
    31     6     1   ar
    32    12     7    1
    33    16    13    1
    34    18     4    1
    35    11    19    1
    36    11    20    1
@<TRIPOS>MOLECULE
*****
 32 36 0 0 0
SMALL
GASTEIGER

@<TRIPOS>ATOM
      1 C         141.4006  141.7509  165.8484 C.ar    1  UNL1        0.0015
      2 C         142.0294  140.5368  165.2314 C.ar    1  UNL1        0.0031
      3 C         142.5765  139.4486  166.1070 C.ar    1  UNL1        0.0366
      4 C         142.4948  139.5745  167.5994 C.ar    1  UNL1        0.1362
      5 C         141.8660  140.7886  168.2164 C.ar    1  UNL1        0.0357
      6 C         141.3189  141.8768  167.3409 C.ar    1  UNL1        0.0007
      7 C         141.7843  140.9145  169.7089 C.3     1  UNL1        0.1582
      8 C         141.6321  141.1786  171.1776 C.3     1  UNL1        0.2351
      9 O         140.9510  142.5050  171.3419 O.2     1  UNL1       -0.4478
     10 C         140.6823  143.0606  169.9747 C.2     1  UNL1        0.2770
     11 N         140.0157  144.3693  169.6703 N.pl3   1  UNL1       -0.3133
     12 N         141.1973  142.0776  168.9654 N.2     1  UNL1       -0.2202
     13 C         142.3314  139.8263  170.5844 C.3     1  UNL1        0.1174
     14 C         142.3542  139.7912  170.1680 C.3     1  UNL1        0.1502
     15 O         142.3303  139.8281  170.6057 O.3     1  UNL1       -0.3532
     16 C         142.3542  139.7912  170.1680 C.3     1  UNL1        0.1502
     17 C         142.9602  138.6123  169.9674 C.3     1  UNL1        0.1726
     18 O         143.0419  138.4864  168.4749 O.3     1  UNL1       -0.4792
     19 H         139.7104  144.9490  170.4052 H       1  UNL1        0.1466
     20 H         139.8835  144.6487  168.7356 H       1  UNL1        0.1466
     21 C         140.7696  144.0503  162.6759 C.ar    1  UNL1        0.0608
     22 C         139.7593  145.0154  163.2217 C.ar    1  UNL1        0.1071
     23 N         139.2962  144.8924  164.6431 N.ar    1  UNL1       -0.2417
     24 C         139.8433  143.8042  165.5187 C.ar    1  UNL1        0.0989
     25 C         140.8535  142.8391  164.9729 C.ar    1  UNL1        0.0198
     26 C         141.3167  142.9621  163.5514 C.ar    1  UNL1        0.0113
     27 C         142.1592  144.4194  158.4118 C.3     1  UNL1        0.0903
     28 C         141.6960  144.2963  159.8331 C.1     1  UNL1       -0.0853
     29 C         141.2328  144.1733  161.2546 C.1     1  UNL1       -0.0628
     30 C         143.5073  137.5240  170.8429 C.3     1  UNL1        0.0438
     31 C         144.4713  136.5220  170.2801 C.3     1  UNL1        0.0037
     32 C         144.9766  135.4020  171.1406 C.3     1  UNL1        0.0001
@<TRIPOS>BOND
     1    27    28    1
     2    28    29    3
     3    29    21    1
     4    21    22   ar
     5    22    23   ar
     6    23    24   ar
     7    24    25   ar
     8    25     1    1
     9     1     2   ar
    10     2     3   ar
    11     3     4   ar
    12     4     5   ar
    13     5     6   ar
    14     5     7    1
    15     7     8    1
    16     8     9    1
    17     9    10    1
    18    10    11    1
    19    10    12    2
    20     7    13    1
    21    13    14    1
    22    14    15    1
    23    15    16    1
    24    13    17    1
    25    17    30    1
    26    30    31    1
    27    31    32    1
    28    17    18    1
    29    25    26   ar
    30    26    21   ar
    31     6     1   ar
    32    12     7    1
    33    16    13    1
    34    18     4    1
    35    11    19    1
    36    11    20    1
@<TRIPOS>MOLECULE
*****
 32 36 0 0 0
SMALL
GASTEIGER

@<TRIPOS>ATOM
      1 C         141.5387  143.4118  163.8048 C.ar    1  UNL1        0.0015
      2 C         142.8901  143.6766  164.3996 C.ar    1  UNL1        0.0031
      3 C         143.3338  142.9232  165.6183 C.ar    1  UNL1        0.0366
      4 C         142.4263  141.9049  166.2424 C.ar    1  UNL1        0.1362
      5 C         141.0749  141.6401  165.6477 C.ar    1  UNL1        0.0357
      6 C         140.6311  142.3935  164.4289 C.ar    1  UNL1        0.0007
      7 C         140.1674  140.6218  166.2718 C.3     1  UNL1        0.1582
      8 C         139.1564  139.6386  166.7830 C.3     1  UNL1        0.2351
      9 O         137.9538  139.7028  165.8886 O.2     1  UNL1       -0.4478
     10 C         138.2216  140.7257  164.8246 C.2     1  UNL1        0.2770
     11 N         137.2858  141.1127  163.7182 N.pl3   1  UNL1       -0.3133
     12 N         139.5896  141.2937  165.0614 N.2     1  UNL1       -0.2202
     13 C         140.6111  139.8684  167.4905 C.3     1  UNL1        0.1174
     14 C         140.8643  140.1525  167.3164 C.3     1  UNL1        0.1502
     15 O         140.5982  139.8539  167.4994 O.3     1  UNL1       -0.3532
     16 C         140.8643  140.1525  167.3164 C.3     1  UNL1        0.1502
     17 C         141.9625  140.1333  168.0852 C.3     1  UNL1        0.1726
     18 O         142.8700  141.1515  167.4611 O.3     1  UNL1       -0.4792
     19 H         136.4040  140.6808  163.6456 H       1  UNL1        0.1466
     20 H         137.5533  141.7985  163.0645 H       1  UNL1        0.1466
     21 C         141.2378  144.5888  160.0267 C.ar    1  UNL1        0.0608
     22 C         140.2074  145.6721  160.1485 C.ar    1  UNL1        0.1071
     23 N         139.6207  146.0019  161.4890 N.ar    1  UNL1       -0.2417
     24 C         140.0645  145.2484  162.7079 C.ar    1  UNL1        0.0989
     25 C         141.0949  144.1652  162.5861 C.ar    1  UNL1        0.0198
     26 C         141.6816  143.8354  161.2455 C.ar    1  UNL1        0.0113
     27 C         142.9978  143.5993  156.0052 C.3     1  UNL1        0.0903
     28 C         142.4112  143.9291  157.3457 C.1     1  UNL1       -0.0853
     29 C         141.8244  144.2590  158.6862 C.1     1  UNL1       -0.0628
     30 C         142.4063  139.3798  169.3040 C.3     1  UNL1        0.0438
     31 C         142.7607  140.1233  170.5576 C.3     1  UNL1        0.0037
     32 C         141.9198  141.2820  171.0056 C.3     1  UNL1        0.0001
@<TRIPOS>BOND
     1    27    28    1
     2    28    29    3
     3    29    21    1
     4    21    22   ar
     5    22    23   ar
     6    23    24   ar
     7    24    25   ar
     8    25     1    1
     9     1     2   ar
    10     2     3   ar
    11     3     4   ar
    12     4     5   ar
    13     5     6   ar
    14     5     7    1
    15     7     8    1
    16     8     9    1
    17     9    10    1
    18    10    11    1
    19    10    12    2
    20     7    13    1
    21    13    14    1
    22    14    15    1
    23    15    16    1
    24    13    17    1
    25    17    30    1
    26    30    31    1
    27    31    32    1
    28    17    18    1
    29    25    26   ar
    30    26    21   ar
    31     6     1   ar
    32    12     7    1
    33    16    13    1
    34    18     4    1
    35    11    19    1
    36    11    20    1
@<TRIPOS>MOLECULE
*****
 32 36 0 0 0
SMALL
GASTEIGER

@<TRIPOS>ATOM
      1 C         141.7870  141.0301  166.7400 C.ar    1  UNL1        0.0015
      2 C         143.0657  141.7068  166.3434 C.ar    1  UNL1        0.0031
      3 C         143.7331  141.3492  165.0485 C.ar    1  UNL1        0.0366
      4 C         143.1219  140.3150  164.1502 C.ar    1  UNL1        0.1362
      5 C         141.8433  139.6384  164.5468 C.ar    1  UNL1        0.0357
      6 C         141.1758  139.9959  165.8417 C.ar    1  UNL1        0.0007
      7 C         141.2321  138.6042  163.6486 C.3     1  UNL1        0.1582
      8 C         140.5069  137.5563  162.8573 C.3     1  UNL1        0.2351
      9 O         139.2807  137.1611  163.6258 O.2     1  UNL1       -0.4478
     10 C         139.2482  137.9646  164.8920 C.2     1  UNL1        0.2770
     11 N         138.1948  137.8895  165.9570 N.pl3   1  UNL1       -0.3133
     12 N         140.4542  138.8565  164.9061 N.2     1  UNL1       -0.2202
     13 C         141.8996  138.2466  162.3537 C.3     1  UNL1        0.1174
     14 C         142.0701  138.5351  162.6043 C.3     1  UNL1        0.1502
     15 O         141.8908  138.2318  162.3409 O.3     1  UNL1       -0.3532
     16 C         142.0701  138.5351  162.6043 C.3     1  UNL1        0.1502
     17 C         143.1781  138.9233  161.9571 C.3     1  UNL1        0.1726
     18 O         143.7893  139.9575  162.8554 O.3     1  UNL1       -0.4792
     19 H         137.4368  137.2693  165.8568 H       1  UNL1        0.1466
     20 H         138.2613  138.4604  166.7563 H       1  UNL1        0.1466
     21 C         139.3158  140.9115  169.8430 C.ar    1  UNL1        0.0608
     22 C         139.7847  142.1028  170.6246 C.ar    1  UNL1        0.1071
     23 N         140.9211  142.9365  170.1113 N.ar    1  UNL1       -0.2417
     24 C         141.5885  142.5790  168.8164 C.ar    1  UNL1        0.0989
     25 C         141.1196  141.3877  168.0348 C.ar    1  UNL1        0.0198
     26 C         139.9832  140.5539  168.5482 C.ar    1  UNL1        0.0113
     27 C         135.9066  138.4102  171.3828 C.3     1  UNL1        0.0903
     28 C         137.0429  139.2439  170.8695 C.1     1  UNL1       -0.0853
     29 C         138.1794  140.0777  170.3563 C.1     1  UNL1       -0.0628
     30 C         143.8456  138.5657  160.6622 C.3     1  UNL1        0.0438
     31 C         143.8284  139.5344  159.5171 C.3     1  UNL1        0.0037
     32 C         142.5826  140.3118  159.2110 C.3     1  UNL1        0.0001
@<TRIPOS>BOND
     1    27    28    1
     2    28    29    3
     3    29    21    1
     4    21    22   ar
     5    22    23   ar
     6    23    24   ar
     7    24    25   ar
     8    25     1    1
     9     1     2   ar
    10     2     3   ar
    11     3     4   ar
    12     4     5   ar
    13     5     6   ar
    14     5     7    1
    15     7     8    1
    16     8     9    1
    17     9    10    1
    18    10    11    1
    19    10    12    2
    20     7    13    1
    21    13    14    1
    22    14    15    1
    23    15    16    1
    24    13    17    1
    25    17    30    1
    26    30    31    1
    27    31    32    1
    28    17    18    1
    29    25    26   ar
    30    26    21   ar
    31     6     1   ar
    32    12     7    1
    33    16    13    1
    34    18     4    1
    35    11    19    1
    36    11    20    1
@<TRIPOS>MOLECULE
*****
 32 36 0 0 0
SMALL
GASTEIGER

@<TRIPOS>ATOM
      1 C         142.5275  140.3044  163.8171 C.ar    1  UNL1        0.0015
      2 C         143.4909  141.2124  164.5224 C.ar    1  UNL1        0.0031
      3 C         143.2364  141.6170  165.9441 C.ar    1  UNL1        0.0366
      4 C         142.0185  141.1137  166.6607 C.ar    1  UNL1        0.1362
      5 C         141.0551  140.2057  165.9554 C.ar    1  UNL1        0.0357
      6 C         141.3096  139.8010  164.5336 C.ar    1  UNL1        0.0007
      7 C         139.8372  139.7023  166.6719 C.3     1  UNL1        0.1582
      8 C         138.5832  139.1225  167.2562 C.3     1  UNL1        0.2351
      9 O         137.9296  138.2765  166.2039 O.2     1  UNL1       -0.4478
     10 C         138.7797  138.3335  164.9693 C.2     1  UNL1        0.2770
     11 N         138.5000  137.6324  163.6731 N.pl3   1  UNL1       -0.3133
     12 N         139.9586  139.2147  165.2585 N.2     1  UNL1       -0.2202
     13 C         139.5827  140.1070  168.0937 C.3     1  UNL1        0.1174
     14 C         139.9225  140.2474  167.8938 C.3     1  UNL1        0.1502
     15 O         139.5653  140.0998  168.1039 O.3     1  UNL1       -0.3532
     16 C         139.9225  140.2474  167.8938 C.3     1  UNL1        0.1502
     17 C         140.5461  141.0149  168.7989 C.3     1  UNL1        0.1726
     18 O         141.7640  141.5183  168.0824 O.3     1  UNL1       -0.4792
     19 H         137.6954  137.0728  163.5798 H       1  UNL1        0.1466
     20 H         139.1209  137.7319  162.9157 H       1  UNL1        0.1466
     21 C         141.9677  139.6821  159.9377 C.ar    1  UNL1        0.0608
     22 C         143.2909  139.0905  159.5517 C.ar    1  UNL1        0.1071
     23 N         144.3597  138.9035  160.5874 N.ar    1  UNL1       -0.2417
     24 C         144.1052  139.3082  162.0093 C.ar    1  UNL1        0.0989
     25 C         142.7820  139.8998  162.3953 C.ar    1  UNL1        0.0198
     26 C         141.7132  140.0867  161.3595 C.ar    1  UNL1        0.0113
     27 C         138.7614  140.2430  156.8305 C.3     1  UNL1        0.0903
     28 C         139.8301  140.0561  157.8662 C.1     1  UNL1       -0.0853
     29 C         140.8989  139.8690  158.9020 C.1     1  UNL1       -0.0628
     30 C         140.2916  141.4196  170.2208 C.3     1  UNL1        0.0438
     31 C         139.7527  142.7856  170.5268 C.3     1  UNL1        0.0037
     32 C         140.4097  143.9998  169.9403 C.3     1  UNL1        0.0001
@<TRIPOS>BOND
     1    27    28    1
     2    28    29    3
     3    29    21    1
     4    21    22   ar
     5    22    23   ar
     6    23    24   ar
     7    24    25   ar
     8    25     1    1
     9     1     2   ar
    10     2     3   ar
    11     3     4   ar
    12     4     5   ar
    13     5     6   ar
    14     5     7    1
    15     7     8    1
    16     8     9    1
    17     9    10    1
    18    10    11    1
    19    10    12    2
    20     7    13    1
    21    13    14    1
    22    14    15    1
    23    15    16    1
    24    13    17    1
    25    17    30    1
    26    30    31    1
    27    31    32    1
    28    17    18    1
    29    25    26   ar
    30    26    21   ar
    31     6     1   ar
    32    12     7    1
    33    16    13    1
    34    18     4    1
    35    11    19    1
    36    11    20    1
@<TRIPOS>MOLECULE
*****
 32 36 0 0 0
SMALL
GASTEIGER

@<TRIPOS>ATOM
      1 C         138.8550  139.2471  164.8461 C.ar    1  UNL1        0.0015
      2 C         139.1527  137.8904  164.2794 C.ar    1  UNL1        0.0031
      3 C         139.2127  137.6951  162.7934 C.ar    1  UNL1        0.0366
      4 C         138.9752  138.8563  161.8741 C.ar    1  UNL1        0.1362
      5 C         138.6775  140.2128  162.4407 C.ar    1  UNL1        0.0357
      6 C         138.6175  140.4083  163.9268 C.ar    1  UNL1        0.0007
      7 C         138.4400  141.3740  161.5214 C.3     1  UNL1        0.1582
      8 C         138.1821  142.6225  160.7310 C.3     1  UNL1        0.2351
      9 O         137.9307  143.7405  161.6991 O.2     1  UNL1       -0.4478
     10 C         138.0332  143.1829  163.0878 C.2     1  UNL1        0.2770
     11 N         137.8526  143.9526  164.3624 N.pl3   1  UNL1       -0.3133
     12 N         138.3479  141.7203  162.9780 N.2     1  UNL1       -0.2202
     13 C         138.5000  141.1787  160.0354 C.3     1  UNL1        0.1174
     14 C         138.5663  140.8547  160.2919 C.3     1  UNL1        0.1502
     15 O         138.4966  141.1952  160.0223 O.3     1  UNL1       -0.3532
     16 C         138.5663  140.8547  160.2919 C.3     1  UNL1        0.1502
     17 C         138.7977  139.8221  159.4688 C.3     1  UNL1        0.1726
     18 O         139.0352  138.6609  160.3881 O.3     1  UNL1       -0.4792
     19 H         137.6468  144.9148  164.3315 H       1  UNL1        0.1466
     20 H         137.9399  143.4955  165.2300 H       1  UNL1        0.1466
     21 C         139.7386  140.5198  168.4998 C.ar    1  UNL1        0.0608
     22 C         138.6748  139.8332  169.3041 C.ar    1  UNL1        0.1071
     23 N         137.6712  138.9512  168.6225 N.ar    1  UNL1       -0.2417
     24 C         137.7312  138.7558  167.1365 C.ar    1  UNL1        0.0989
     25 C         138.7949  139.4424  166.3321 C.ar    1  UNL1        0.0198
     26 C         139.7987  140.3245  167.0138 C.ar    1  UNL1        0.0113
     27 C         142.7497  143.1658  170.5447 C.3     1  UNL1        0.0903
     28 C         141.7460  142.2838  169.8631 C.1     1  UNL1       -0.0853
     29 C         140.7423  141.4018  169.1814 C.1     1  UNL1       -0.0628
     30 C         138.8578  139.6267  157.9827 C.3     1  UNL1        0.0438
     31 C         140.1785  139.4000  157.3089 C.3     1  UNL1        0.0037
     32 C         141.4504  139.5028  158.0976 C.3     1  UNL1        0.0001
@<TRIPOS>BOND
     1    27    28    1
     2    28    29    3
     3    29    21    1
     4    21    22   ar
     5    22    23   ar
     6    23    24   ar
     7    24    25   ar
     8    25     1    1
     9     1     2   ar
    10     2     3   ar
    11     3     4   ar
    12     4     5   ar
    13     5     6   ar
    14     5     7    1
    15     7     8    1
    16     8     9    1
    17     9    10    1
    18    10    11    1
    19    10    12    2
    20     7    13    1
    21    13    14    1
    22    14    15    1
    23    15    16    1
    24    13    17    1
    25    17    30    1
    26    30    31    1
    27    31    32    1
    28    17    18    1
    29    25    26   ar
    30    26    21   ar
    31     6     1   ar
    32    12     7    1
    33    16    13    1
    34    18     4    1
    35    11    19    1
    36    11    20    1
@<TRIPOS>MOLECULE
*****
 32 36 0 0 0
SMALL
GASTEIGER

@<TRIPOS>ATOM
      1 C         141.6095  143.9347  158.1333 C.ar    1  UNL1        0.0015
      2 C         142.7313  143.0232  157.7319 C.ar    1  UNL1        0.0031
      3 C         143.7088  142.5386  158.7613 C.ar    1  UNL1        0.0366
      4 C         143.5646  142.9653  160.1920 C.ar    1  UNL1        0.1362
      5 C         142.4430  143.8767  160.5935 C.ar    1  UNL1        0.0357
      6 C         141.4654  144.3614  159.5641 C.ar    1  UNL1        0.0007
      7 C         142.2988  144.3035  162.0242 C.3     1  UNL1        0.1582
      8 C         142.0287  144.8121  163.4093 C.3     1  UNL1        0.2351
      9 O         140.8132  145.6893  163.3522 O.2     1  UNL1       -0.4478
     10 C         140.3320  145.7228  161.9319 C.2     1  UNL1        0.2770
     11 N         139.1418  146.4797  161.4218 N.pl3   1  UNL1       -0.3133
     12 N         141.2502  144.8663  161.1111 N.2     1  UNL1       -0.2202
     13 C         143.2763  143.8188  163.0536 C.3     1  UNL1        0.1174
     14 C         143.3165  143.6998  162.6544 C.3     1  UNL1        0.1502
     15 O         143.2742  143.8249  163.0740 O.3     1  UNL1       -0.3532
     16 C         143.3165  143.6998  162.6544 C.3     1  UNL1        0.1502
     17 C         144.3979  142.9074  162.6521 C.3     1  UNL1        0.1726
     18 O         144.5421  142.4807  161.2214 O.3     1  UNL1       -0.4792
     19 H         138.5977  147.0173  162.0416 H       1  UNL1        0.1466
     20 H         138.9048  146.4390  160.4671 H       1  UNL1        0.1466
     21 C         139.3507  146.3684  155.9598 C.ar    1  UNL1        0.0608
     22 C         138.6770  145.3887  155.0453 C.ar    1  UNL1        0.1071
     23 N         138.9809  143.9243  155.1601 N.ar    1  UNL1       -0.2417
     24 C         139.9584  143.4396  156.1895 C.ar    1  UNL1        0.0989
     25 C         140.6321  144.4193  157.1040 C.ar    1  UNL1        0.0198
     26 C         140.3281  145.8838  156.9892 C.ar    1  UNL1        0.0113
     27 C         138.4391  150.7616  155.6155 C.3     1  UNL1        0.0903
     28 C         138.7430  149.2973  155.7303 C.1     1  UNL1       -0.0853
     29 C         139.0468  147.8328  155.8450 C.1     1  UNL1       -0.0628
     30 C         145.3755  142.4227  163.6815 C.3     1  UNL1        0.0438
     31 C         145.6175  140.9523  163.8522 C.3     1  UNL1        0.0037
     32 C         144.4572  140.0040  163.9196 C.3     1  UNL1        0.0001
@<TRIPOS>BOND
     1    27    28    1
     2    28    29    3
     3    29    21    1
     4    21    22   ar
     5    22    23   ar
     6    23    24   ar
     7    24    25   ar
     8    25     1    1
     9     1     2   ar
    10     2     3   ar
    11     3     4   ar
    12     4     5   ar
    13     5     6   ar
    14     5     7    1
    15     7     8    1
    16     8     9    1
    17     9    10    1
    18    10    11    1
    19    10    12    2
    20     7    13    1
    21    13    14    1
    22    14    15    1
    23    15    16    1
    24    13    17    1
    25    17    30    1
    26    30    31    1
    27    31    32    1
    28    17    18    1
    29    25    26   ar
    30    26    21   ar
    31     6     1   ar
    32    12     7    1
    33    16    13    1
    34    18     4    1
    35    11    19    1
    36    11    20    1
@<TRIPOS>MOLECULE
*****
 32 36 0 0 0
SMALL
GASTEIGER

@<TRIPOS>ATOM
      1 C         140.0248  142.9882  162.9497 C.ar    1  UNL1        0.0015
      2 C         140.3936  143.9963  163.9975 C.ar    1  UNL1        0.0031
      3 C         140.4019  143.6045  165.4453 C.ar    1  UNL1        0.0366
      4 C         140.0413  142.2045  165.8455 C.ar    1  UNL1        0.1362
      5 C         139.6725  141.1964  164.7978 C.ar    1  UNL1        0.0357
      6 C         139.6642  141.5883  163.3499 C.ar    1  UNL1        0.0007
      7 C         139.3119  139.7965  165.1980 C.3     1  UNL1        0.1582
      8 C         138.9305  138.3670  165.4454 C.3     1  UNL1        0.2351
      9 O         138.6426  137.7279  164.1191 O.2     1  UNL1       -0.4478
     10 C         138.8460  138.7623  163.0522 C.2     1  UNL1        0.2770
     11 N         138.6672  138.5549  161.5775 N.pl3   1  UNL1       -0.3133
     12 N         139.2597  140.0408  163.7189 N.2     1  UNL1       -0.2202
     13 C         139.3201  139.4046  166.6458 C.3     1  UNL1        0.1174
     14 C         139.4207  139.7952  166.5342 C.3     1  UNL1        0.1502
     15 O         139.3150  139.3846  166.6516 O.3     1  UNL1       -0.3532
     16 C         139.4207  139.7952  166.5342 C.3     1  UNL1        0.1502
     17 C         139.6890  140.4127  167.6935 C.3     1  UNL1        0.1726
     18 O         140.0495  141.8126  167.2934 O.3     1  UNL1       -0.4792
     19 H         138.3917  137.6743  161.2341 H       1  UNL1        0.1466
     20 H         138.8253  139.2993  160.9529 H       1  UNL1        0.1466
     21 C         139.1027  143.0637  159.0904 C.ar    1  UNL1        0.0608
     22 C         140.0000  144.1638  158.6061 C.ar    1  UNL1        0.1071
     23 N         140.9056  144.8720  159.5695 N.ar    1  UNL1       -0.2417
     24 C         140.9139  144.4802  161.0175 C.ar    1  UNL1        0.0989
     25 C         140.0166  143.3801  161.5019 C.ar    1  UNL1        0.0198
     26 C         139.1109  142.6719  160.5383 C.ar    1  UNL1        0.0113
     27 C         136.3859  140.9390  156.2000 C.3     1  UNL1        0.0903
     28 C         137.2915  141.6472  157.1635 C.1     1  UNL1       -0.0853
     29 C         138.1971  142.3555  158.1270 C.1     1  UNL1       -0.0628
     30 C         139.6972  140.0209  169.1415 C.3     1  UNL1        0.0438
     31 C         140.9933  139.9572  169.8938 C.3     1  UNL1        0.0037
     32 C         142.2414  139.4978  169.2001 C.3     1  UNL1        0.0001
@<TRIPOS>BOND
     1    27    28    1
     2    28    29    3
     3    29    21    1
     4    21    22   ar
     5    22    23   ar
     6    23    24   ar
     7    24    25   ar
     8    25     1    1
     9     1     2   ar
    10     2     3   ar
    11     3     4   ar
    12     4     5   ar
    13     5     6   ar
    14     5     7    1
    15     7     8    1
    16     8     9    1
    17     9    10    1
    18    10    11    1
    19    10    12    2
    20     7    13    1
    21    13    14    1
    22    14    15    1
    23    15    16    1
    24    13    17    1
    25    17    30    1
    26    30    31    1
    27    31    32    1
    28    17    18    1
    29    25    26   ar
    30    26    21   ar
    31     6     1   ar
    32    12     7    1
    33    16    13    1
    34    18     4    1
    35    11    19    1
    36    11    20    1
