@<TRIPOS>MOLECULE
*****
 29 31 0 0 0
SMALL
GASTEIGER

@<TRIPOS>ATOM
      1 C         141.4775  140.6159  162.4665 C.3     1  UNL1        0.4076
      2 N         141.3544  141.2720  163.8098 N.ar    1  UNL1       -0.1706
      3 C         140.7636  142.6462  163.9220 C.ar    1  UNL1        0.2030
      4 C         140.6405  143.3023  165.2653 C.ar    1  UNL1        0.0646
      5 C         141.1084  142.5842  166.4963 C.ar    1  UNL1        0.0115
      6 C         141.6992  141.2101  166.3841 C.ar    1  UNL1        0.0646
      7 C         141.8223  140.5540  165.0408 C.ar    1  UNL1        0.2030
      8 C         140.2957  143.3642  162.6909 C.3     1  UNL1        0.1006
      9 C         138.8309  143.6015  162.4721 C.3     1  UNL1        0.0584
     10 C         137.9998  142.5671  161.7725 C.3     1  UNL1        0.2060
     11 O         137.1260  141.6433  162.5683 O.3     1  UNL1       -0.4754
     12 C         137.7252  140.4553  163.2607 C.ar    1  UNL1        0.1394
     13 C         138.1312  139.2497  162.4657 C.ar    1  UNL1        0.0370
     14 C         138.7303  138.0617  163.1581 C.ar    1  UNL1        0.0040
     15 C         138.9235  138.0791  164.6455 C.ar    1  UNL1        0.0116
     16 C         138.5175  139.2845  165.4405 C.ar    1  UNL1        0.0607
     17 CL        138.7107  139.3019  166.9279 Cl      1  UNL1       -0.0821
     18 C         137.9183  140.4726  164.7481 C.ar    1  UNL1        0.0483
     19 C         142.4132  139.1798  164.9286 C.3     1  UNL1        0.1006
     20 C         143.8475  138.9476  165.3009 C.3     1  UNL1        0.0584
     21 C         144.9339  139.2081  164.3000 C.3     1  UNL1        0.2060
     22 O         145.6579  140.5218  164.3037 O.3     1  UNL1       -0.4754
     23 C         145.0723  141.7029  163.5881 C.ar    1  UNL1        0.1394
     24 C         144.9333  141.6817  162.0947 C.ar    1  UNL1        0.0370
     25 C         144.3478  142.8627  161.3791 C.ar    1  UNL1        0.0040
     26 C         143.9012  144.0651  162.1569 C.ar    1  UNL1        0.0116
     27 C         144.0403  144.0863  163.6503 C.ar    1  UNL1        0.0607
     28 CL        143.5937  145.2888  164.4280 Cl      1  UNL1       -0.0821
     29 C         144.6258  142.9053  164.3659 C.ar    1  UNL1        0.0483
@<TRIPOS>UNITY_ATOM_ATTR
2 1
charge 1
@<TRIPOS>BOND
     1     1     2    1
     2     2     3   ar
     3     3     8    1
     4     8     9    1
     5     9    10    1
     6    10    11    1
     7    11    12    1
     8    12    13   ar
     9    13    14   ar
    10    14    15   ar
    11    15    16   ar
    12    16    17    1
    13    16    18   ar
    14     3     4   ar
    15     4     5   ar
    16     5     6   ar
    17     6     7   ar
    18     7    19    1
    19    19    20    1
    20    20    21    1
    21    21    22    1
    22    22    23    1
    23    23    24   ar
    24    24    25   ar
    25    25    26   ar
    26    26    27   ar
    27    27    28    1
    28    27    29   ar
    29     7     2   ar
    30    29    23   ar
    31    18    12   ar
@<TRIPOS>MOLECULE
*****
 29 31 0 0 0
SMALL
GASTEIGER

@<TRIPOS>ATOM
      1 C         142.0378  140.0573  161.7143 C.3     1  UNL1        0.4076
      2 N         142.2398  139.6002  163.1286 N.ar    1  UNL1       -0.1706
      3 C         141.5415  138.3695  163.6260 C.ar    1  UNL1        0.2030
      4 C         141.7435  137.9123  165.0403 C.ar    1  UNL1        0.0646
      5 C         142.6439  138.6860  165.9572 C.ar    1  UNL1        0.0115
      6 C         143.3422  139.9168  165.4598 C.ar    1  UNL1        0.0646
      7 C         143.1402  140.3739  164.0455 C.ar    1  UNL1        0.2030
      8 C         140.6410  137.5957  162.7091 C.3     1  UNL1        0.1006
      9 C         139.1536  137.7683  162.7972 C.3     1  UNL1        0.0584
     10 C         138.5328  139.0969  162.4818 C.3     1  UNL1        0.2060
     11 O         137.8255  139.8682  163.5564 O.3     1  UNL1       -0.4754
     12 C         138.4864  140.0801  164.8861 C.ar    1  UNL1        0.1394
     13 C         138.1659  139.1719  166.0361 C.ar    1  UNL1        0.0370
     14 C         138.8268  139.3837  167.3659 C.ar    1  UNL1        0.0040
     15 C         139.8081  140.5038  167.5457 C.ar    1  UNL1        0.0116
     16 C         140.1286  141.4120  166.3958 C.ar    1  UNL1        0.0607
     17 CL        141.1100  142.5321  166.5756 Cl      1  UNL1       -0.0821
     18 C         139.4677  141.2002  165.0659 C.ar    1  UNL1        0.0483
     19 C         143.8386  141.6048  163.5481 C.3     1  UNL1        0.1006
     20 C         143.1313  142.9274  163.5664 C.3     1  UNL1        0.0584
     21 C         142.9790  143.7141  162.2983 C.3     1  UNL1        0.2060
     22 O         141.9201  144.7714  162.1943 O.3     1  UNL1       -0.4754
     23 C         140.5359  144.4995  162.7044 C.ar    1  UNL1        0.1394
     24 C         139.5556  143.7509  161.8508 C.ar    1  UNL1        0.0370
     25 C         138.1715  143.4790  162.3609 C.ar    1  UNL1        0.0040
     26 C         137.7677  143.9555  163.7246 C.ar    1  UNL1        0.0116
     27 C         138.7480  144.7041  164.5783 C.ar    1  UNL1        0.0607
     28 CL        138.3442  145.1807  165.9420 Cl      1  UNL1       -0.0821
     29 C         140.1321  144.9760  164.0682 C.ar    1  UNL1        0.0483
@<TRIPOS>UNITY_ATOM_ATTR
2 1
charge 1
@<TRIPOS>BOND
     1     1     2    1
     2     2     3   ar
     3     3     8    1
     4     8     9    1
     5     9    10    1
     6    10    11    1
     7    11    12    1
     8    12    13   ar
     9    13    14   ar
    10    14    15   ar
    11    15    16   ar
    12    16    17    1
    13    16    18   ar
    14     3     4   ar
    15     4     5   ar
    16     5     6   ar
    17     6     7   ar
    18     7    19    1
    19    19    20    1
    20    20    21    1
    21    21    22    1
    22    22    23    1
    23    23    24   ar
    24    24    25   ar
    25    25    26   ar
    26    26    27   ar
    27    27    28    1
    28    27    29   ar
    29     7     2   ar
    30    29    23   ar
    31    18    12   ar
@<TRIPOS>MOLECULE
*****
 29 31 0 0 0
SMALL
GASTEIGER

@<TRIPOS>ATOM
      1 C         142.6497  141.0045  161.9591 C.3     1  UNL1        0.4076
      2 N         142.6717  140.0965  163.1529 N.ar    1  UNL1       -0.1706
      3 C         141.4496  139.3065  163.5169 C.ar    1  UNL1        0.2030
      4 C         141.4716  138.3985  164.7106 C.ar    1  UNL1        0.0646
      5 C         142.7156  138.2805  165.5404 C.ar    1  UNL1        0.0115
      6 C         143.9376  139.0705  165.1764 C.ar    1  UNL1        0.0646
      7 C         143.9156  139.9785  163.9826 C.ar    1  UNL1        0.2030
      8 C         140.2056  139.4245  162.6871 C.3     1  UNL1        0.1006
      9 C         138.9001  139.7737  163.3381 C.3     1  UNL1        0.0584
     10 C         137.7055  140.1044  162.4934 C.3     1  UNL1        0.2060
     11 O         137.0888  141.4697  162.5682 O.3     1  UNL1       -0.4754
     12 C         137.9330  142.6550  162.9319 C.ar    1  UNL1        0.1394
     13 C         138.9668  143.1626  161.9708 C.ar    1  UNL1        0.0370
     14 C         139.8111  144.3480  162.3344 C.ar    1  UNL1        0.0040
     15 C         139.6215  145.0257  163.6591 C.ar    1  UNL1        0.0116
     16 C         138.5877  144.5182  164.6201 C.ar    1  UNL1        0.0607
     17 CL        138.3981  145.1960  165.9447 Cl      1  UNL1       -0.0821
     18 C         137.7434  143.3328  164.2565 C.ar    1  UNL1        0.0483
     19 C         145.1378  140.7685  163.6187 C.3     1  UNL1        0.1006
     20 C         145.3603  142.1249  164.2191 C.3     1  UNL1        0.0584
     21 C         144.2026  142.8953  164.7813 C.3     1  UNL1        0.2060
     22 O         143.8636  142.7830  166.2382 O.3     1  UNL1       -0.4754
     23 C         142.6106  142.0771  166.6644 C.ar    1  UNL1        0.1394
     24 C         141.3494  142.2418  165.8691 C.ar    1  UNL1        0.0370
     25 C         140.0964  141.5359  166.2953 C.ar    1  UNL1        0.0040
     26 C         140.1045  140.6653  167.5167 C.ar    1  UNL1        0.0116
     27 C         141.3657  140.5005  168.3120 C.ar    1  UNL1        0.0607
     28 CL        141.3737  139.6299  169.5334 Cl      1  UNL1       -0.0821
     29 C         142.6187  141.2064  167.8858 C.ar    1  UNL1        0.0483
@<TRIPOS>UNITY_ATOM_ATTR
2 1
charge 1
@<TRIPOS>BOND
     1     1     2    1
     2     2     3   ar
     3     3     8    1
     4     8     9    1
     5     9    10    1
     6    10    11    1
     7    11    12    1
     8    12    13   ar
     9    13    14   ar
    10    14    15   ar
    11    15    16   ar
    12    16    17    1
    13    16    18   ar
    14     3     4   ar
    15     4     5   ar
    16     5     6   ar
    17     6     7   ar
    18     7    19    1
    19    19    20    1
    20    20    21    1
    21    21    22    1
    22    22    23    1
    23    23    24   ar
    24    24    25   ar
    25    25    26   ar
    26    26    27   ar
    27    27    28    1
    28    27    29   ar
    29     7     2   ar
    30    29    23   ar
    31    18    12   ar
@<TRIPOS>MOLECULE
*****
 29 31 0 0 0
SMALL
GASTEIGER

@<TRIPOS>ATOM
      1 C         142.4642  140.5776  161.8031 C.3     1  UNL1        0.4076
      2 N         142.5671  139.8037  163.0840 N.ar    1  UNL1       -0.1706
      3 C         143.8533  139.7982  163.8556 C.ar    1  UNL1        0.2030
      4 C         143.9562  139.0243  165.1365 C.ar    1  UNL1        0.0646
      5 C         142.7728  138.2560  165.6456 C.ar    1  UNL1        0.0115
      6 C         141.4866  138.2615  164.8739 C.ar    1  UNL1        0.0646
      7 C         141.3837  139.0354  163.5931 C.ar    1  UNL1        0.2030
      8 C         145.0368  140.5665  163.3465 C.3     1  UNL1        0.1006
      9 C         145.4792  141.8153  164.0498 C.3     1  UNL1        0.0584
     10 C         144.5006  142.9259  164.2929 C.3     1  UNL1        0.2060
     11 O         144.0089  143.2013  165.6830 O.3     1  UNL1       -0.4754
     12 C         142.8478  142.4284  166.2346 C.ar    1  UNL1        0.1394
     13 C         141.5338  142.4304  165.5110 C.ar    1  UNL1        0.0370
     14 C         140.3727  141.6575  166.0626 C.ar    1  UNL1        0.0040
     15 C         140.5254  140.8826  167.3378 C.ar    1  UNL1        0.0116
     16 C         141.8393  140.8806  168.0615 C.ar    1  UNL1        0.0607
     17 CL        141.9920  140.1057  169.3367 Cl      1  UNL1       -0.0821
     18 C         143.0005  141.6535  167.5099 C.ar    1  UNL1        0.0483
     19 C         140.0974  139.0410  162.8214 C.3     1  UNL1        0.1006
     20 C         138.9005  139.7644  163.3639 C.3     1  UNL1        0.0584
     21 C         137.7450  140.0837  162.4624 C.3     1  UNL1        0.2060
     22 O         137.0955  141.4343  162.5253 O.3     1  UNL1       -0.4754
     23 C         137.9116  142.6433  162.8754 C.ar    1  UNL1        0.1394
     24 C         138.9024  143.1902  161.8909 C.ar    1  UNL1        0.0370
     25 C         139.7184  144.3991  162.2410 C.ar    1  UNL1        0.0040
     26 C         139.5435  145.0612  163.5755 C.ar    1  UNL1        0.0116
     27 C         138.5527  144.5143  164.5600 C.ar    1  UNL1        0.0607
     28 CL        138.3779  145.1765  165.8946 Cl      1  UNL1       -0.0821
     29 C         137.7367  143.3054  164.2100 C.ar    1  UNL1        0.0483
@<TRIPOS>UNITY_ATOM_ATTR
2 1
charge 1
@<TRIPOS>BOND
     1     1     2    1
     2     2     3   ar
     3     3     8    1
     4     8     9    1
     5     9    10    1
     6    10    11    1
     7    11    12    1
     8    12    13   ar
     9    13    14   ar
    10    14    15   ar
    11    15    16   ar
    12    16    17    1
    13    16    18   ar
    14     3     4   ar
    15     4     5   ar
    16     5     6   ar
    17     6     7   ar
    18     7    19    1
    19    19    20    1
    20    20    21    1
    21    21    22    1
    22    22    23    1
    23    23    24   ar
    24    24    25   ar
    25    25    26   ar
    26    26    27   ar
    27    27    28    1
    28    27    29   ar
    29     7     2   ar
    30    29    23   ar
    31    18    12   ar
@<TRIPOS>MOLECULE
*****
 29 31 0 0 0
SMALL
GASTEIGER

@<TRIPOS>ATOM
      1 C         142.3173  140.8345  165.3944 C.3     1  UNL1        0.4076
      2 N         141.2744  141.0882  164.3464 N.ar    1  UNL1       -0.1706
      3 C         139.8410  141.2781  164.7454 C.ar    1  UNL1        0.2030
      4 C         138.7981  141.5318  163.6975 C.ar    1  UNL1        0.0646
      5 C         139.1887  141.5955  162.2506 C.ar    1  UNL1        0.0115
      6 C         140.6221  141.4056  161.8517 C.ar    1  UNL1        0.0646
      7 C         141.6650  141.1519  162.8996 C.ar    1  UNL1        0.2030
      8 C         139.4503  141.2144  166.1923 C.3     1  UNL1        0.1006
      9 C         139.2084  139.8863  166.8460 C.3     1  UNL1        0.0584
     10 C         138.1095  138.9946  166.3486 C.3     1  UNL1        0.2060
     11 O         138.4440  137.7037  165.6619 O.3     1  UNL1       -0.4754
     12 C         139.3565  137.7020  164.4714 C.ar    1  UNL1        0.1394
     13 C         140.8278  137.4741  164.6545 C.ar    1  UNL1        0.0370
     14 C         141.7403  137.4725  163.4640 C.ar    1  UNL1        0.0040
     15 C         141.1816  137.6987  162.0905 C.ar    1  UNL1        0.0116
     16 C         139.7104  137.9265  161.9074 C.ar    1  UNL1        0.0607
     17 CL        139.1517  138.1527  160.5338 Cl      1  UNL1       -0.0821
     18 C         138.7978  137.9282  163.0979 C.ar    1  UNL1        0.0483
     19 C         143.0985  140.9619  162.5006 C.3     1  UNL1        0.1006
     20 C         143.9022  142.1305  162.0123 C.3     1  UNL1        0.0584
     21 C         144.1039  143.3245  162.8975 C.3     1  UNL1        0.2060
     22 O         143.4965  144.6447  162.5261 O.3     1  UNL1       -0.4754
     23 C         142.0074  144.8217  162.5616 C.ar    1  UNL1        0.1394
     24 C         141.2499  145.0603  161.2890 C.ar    1  UNL1        0.0370
     25 C         139.7608  145.2373  161.3245 C.ar    1  UNL1        0.0040
     26 C         139.0292  145.1758  162.6325 C.ar    1  UNL1        0.0116
     27 C         139.7867  144.9372  163.9050 C.ar    1  UNL1        0.0607
     28 CL        139.0550  144.8757  165.2131 Cl      1  UNL1       -0.0821
     29 C         141.2757  144.7602  163.8696 C.ar    1  UNL1        0.0483
@<TRIPOS>UNITY_ATOM_ATTR
2 1
charge 1
@<TRIPOS>BOND
     1     1     2    1
     2     2     3   ar
     3     3     8    1
     4     8     9    1
     5     9    10    1
     6    10    11    1
     7    11    12    1
     8    12    13   ar
     9    13    14   ar
    10    14    15   ar
    11    15    16   ar
    12    16    17    1
    13    16    18   ar
    14     3     4   ar
    15     4     5   ar
    16     5     6   ar
    17     6     7   ar
    18     7    19    1
    19    19    20    1
    20    20    21    1
    21    21    22    1
    22    22    23    1
    23    23    24   ar
    24    24    25   ar
    25    25    26   ar
    26    26    27   ar
    27    27    28    1
    28    27    29   ar
    29     7     2   ar
    30    29    23   ar
    31    18    12   ar
@<TRIPOS>MOLECULE
*****
 29 31 0 0 0
SMALL
GASTEIGER

@<TRIPOS>ATOM
      1 C         141.7331  141.4211  164.5893 C.3     1  UNL1        0.4076
      2 N         140.6608  140.4268  164.9231 N.ar    1  UNL1       -0.1706
      3 C         139.2553  140.8920  165.1643 C.ar    1  UNL1        0.2030
      4 C         138.1830  139.8977  165.4981 C.ar    1  UNL1        0.0646
      5 C         138.5161  138.4381  165.5907 C.ar    1  UNL1        0.0115
      6 C         139.9216  137.9729  165.3495 C.ar    1  UNL1        0.0646
      7 C         140.9939  138.9672  165.0157 C.ar    1  UNL1        0.2030
      8 C         138.9221  142.3517  165.0716 C.3     1  UNL1        0.1006
      9 C         137.7262  142.7995  164.2848 C.3     1  UNL1        0.0584
     10 C         137.8019  142.8861  162.7892 C.3     1  UNL1        0.2060
     11 O         137.3982  141.7113  161.9485 O.3     1  UNL1       -0.4754
     12 C         138.3281  140.5445  161.7943 C.ar    1  UNL1        0.1394
     13 C         137.8084  139.1458  161.9480 C.ar    1  UNL1        0.0370
     14 C         138.7384  137.9790  161.7938 C.ar    1  UNL1        0.0040
     15 C         140.1880  138.2109  161.4860 C.ar    1  UNL1        0.0116
     16 C         140.7077  139.6095  161.3323 C.ar    1  UNL1        0.0607
     17 CL        142.1573  139.8414  161.0244 Cl      1  UNL1       -0.0821
     18 C         139.7778  140.7764  161.4865 C.ar    1  UNL1        0.0483
     19 C         142.3994  138.5019  164.7745 C.3     1  UNL1        0.1006
     20 C         143.3545  138.3733  165.9240 C.3     1  UNL1        0.0584
     21 C         142.9877  138.9260  167.2693 C.3     1  UNL1        0.2060
     22 O         143.0327  140.4060  167.5098 O.3     1  UNL1       -0.4754
     23 C         141.9856  141.0594  168.3623 C.ar    1  UNL1        0.1394
     24 C         142.1857  142.4631  168.8518 C.ar    1  UNL1        0.0370
     25 C         141.1387  143.1165  169.7043 C.ar    1  UNL1        0.0040
     26 C         139.8915  142.3663  170.0672 C.ar    1  UNL1        0.0116
     27 C         139.6914  140.9626  169.5777 C.ar    1  UNL1        0.0607
     28 CL        138.4442  140.2124  169.9407 Cl      1  UNL1       -0.0821
     29 C         140.7384  140.3092  168.7252 C.ar    1  UNL1        0.0483
@<TRIPOS>UNITY_ATOM_ATTR
2 1
charge 1
@<TRIPOS>BOND
     1     1     2    1
     2     2     3   ar
     3     3     8    1
     4     8     9    1
     5     9    10    1
     6    10    11    1
     7    11    12    1
     8    12    13   ar
     9    13    14   ar
    10    14    15   ar
    11    15    16   ar
    12    16    17    1
    13    16    18   ar
    14     3     4   ar
    15     4     5   ar
    16     5     6   ar
    17     6     7   ar
    18     7    19    1
    19    19    20    1
    20    20    21    1
    21    21    22    1
    22    22    23    1
    23    23    24   ar
    24    24    25   ar
    25    25    26   ar
    26    26    27   ar
    27    27    28    1
    28    27    29   ar
    29     7     2   ar
    30    29    23   ar
    31    18    12   ar
@<TRIPOS>MOLECULE
*****
 29 31 0 0 0
SMALL
GASTEIGER

@<TRIPOS>ATOM
      1 C         141.4115  145.2239  163.2445 C.3     1  UNL1        0.4076
      2 N         141.4169  144.1953  164.3363 N.ar    1  UNL1       -0.1706
      3 C         142.7000  143.5249  164.7287 C.ar    1  UNL1        0.2030
      4 C         142.7054  142.4963  165.8205 C.ar    1  UNL1        0.0646
      5 C         141.4276  142.1382  166.5199 C.ar    1  UNL1        0.0115
      6 C         140.1445  142.8087  166.1275 C.ar    1  UNL1        0.0646
      7 C         140.1391  143.8372  165.0357 C.ar    1  UNL1        0.2030
      8 C         143.9778  143.8830  164.0294 C.3     1  UNL1        0.1006
      9 C         144.4223  143.0979  162.8310 C.3     1  UNL1        0.0584
     10 C         145.4636  142.0284  162.9792 C.3     1  UNL1        0.2060
     11 O         145.1917  140.6420  162.4753 O.3     1  UNL1       -0.4754
     12 C         144.2154  139.7602  163.1959 C.ar    1  UNL1        0.1394
     13 C         143.1654  139.0167  162.4246 C.ar    1  UNL1        0.0370
     14 C         142.1890  138.1350  163.1451 C.ar    1  UNL1        0.0040
     15 C         142.2626  137.9967  164.6369 C.ar    1  UNL1        0.0116
     16 C         143.3125  138.7401  165.4082 C.ar    1  UNL1        0.0607
     17 CL        143.3860  138.6019  166.9000 Cl      1  UNL1       -0.0821
     18 C         144.2889  139.6220  164.6877 C.ar    1  UNL1        0.0483
     19 C         138.8559  144.5077  164.6433 C.3     1  UNL1        0.1006
     20 C         137.7468  143.7046  164.0311 C.3     1  UNL1        0.0584
     21 C         137.9559  143.0194  162.7133 C.3     1  UNL1        0.2060
     22 O         139.1310  142.1072  162.5204 O.3     1  UNL1       -0.4754
     23 C         138.9657  140.6257  162.6870 C.ar    1  UNL1        0.1394
     24 C         138.9133  139.7364  161.4801 C.ar    1  UNL1        0.0370
     25 C         138.7479  138.2550  161.6467 C.ar    1  UNL1        0.0040
     26 C         138.6350  137.6627  163.0202 C.ar    1  UNL1        0.0116
     27 C         138.6874  138.5519  164.2271 C.ar    1  UNL1        0.0607
     28 CL        138.5745  137.9596  165.6006 Cl      1  UNL1       -0.0821
     29 C         138.8527  140.0334  164.0605 C.ar    1  UNL1        0.0483
@<TRIPOS>UNITY_ATOM_ATTR
2 1
charge 1
@<TRIPOS>BOND
     1     1     2    1
     2     2     3   ar
     3     3     8    1
     4     8     9    1
     5     9    10    1
     6    10    11    1
     7    11    12    1
     8    12    13   ar
     9    13    14   ar
    10    14    15   ar
    11    15    16   ar
    12    16    17    1
    13    16    18   ar
    14     3     4   ar
    15     4     5   ar
    16     5     6   ar
    17     6     7   ar
    18     7    19    1
    19    19    20    1
    20    20    21    1
    21    21    22    1
    22    22    23    1
    23    23    24   ar
    24    24    25   ar
    25    25    26   ar
    26    26    27   ar
    27    27    28    1
    28    27    29   ar
    29     7     2   ar
    30    29    23   ar
    31    18    12   ar
@<TRIPOS>MOLECULE
*****
 29 31 0 0 0
SMALL
GASTEIGER

@<TRIPOS>ATOM
      1 C         140.5756  139.8127  162.4256 C.3     1  UNL1        0.4076
      2 N         141.5622  139.5367  163.5212 N.ar    1  UNL1       -0.1706
      3 C         142.7457  140.4389  163.7095 C.ar    1  UNL1        0.2030
      4 C         143.7323  140.1629  164.8051 C.ar    1  UNL1        0.0646
      5 C         143.5356  138.9848  165.7123 C.ar    1  UNL1        0.0115
      6 C         142.3522  138.0826  165.5240 C.ar    1  UNL1        0.0646
      7 C         141.3655  138.3586  164.4284 C.ar    1  UNL1        0.2030
      8 C         142.9425  141.6172  162.8022 C.3     1  UNL1        0.1006
      9 C         143.6215  142.8528  163.3142 C.3     1  UNL1        0.0584
     10 C         142.8478  144.1303  163.4546 C.3     1  UNL1        0.2060
     11 O         141.5824  144.3303  162.6745 O.3     1  UNL1       -0.4754
     12 C         140.2539  144.0728  163.3216 C.ar    1  UNL1        0.1394
     13 C         139.7746  144.9624  164.4302 C.ar    1  UNL1        0.0370
     14 C         138.4461  144.7049  165.0773 C.ar    1  UNL1        0.0040
     15 C         137.5968  143.5579  164.6158 C.ar    1  UNL1        0.0116
     16 C         138.0760  142.6683  163.5072 C.ar    1  UNL1        0.0607
     17 CL        137.2267  141.5212  163.0457 Cl      1  UNL1       -0.0821
     18 C         139.4046  142.9257  162.8601 C.ar    1  UNL1        0.0483
     19 C         140.1820  137.4563  164.2401 C.3     1  UNL1        0.1006
     20 C         138.9677  137.6218  165.1049 C.3     1  UNL1        0.0584
     21 C         138.5504  138.9894  165.5581 C.3     1  UNL1        0.2060
     22 O         138.8705  139.4485  166.9498 O.3     1  UNL1       -0.4754
     23 C         140.0409  140.3556  167.1897 C.ar    1  UNL1        0.1394
     24 C         140.2742  141.5327  166.2897 C.ar    1  UNL1        0.0370
     25 C         141.4445  142.4398  166.5295 C.ar    1  UNL1        0.0040
     26 C         142.3814  142.1699  167.6693 C.ar    1  UNL1        0.0116
     27 C         142.1480  140.9928  168.5693 C.ar    1  UNL1        0.0607
     28 CL        143.0850  140.7228  169.7092 Cl      1  UNL1       -0.0821
     29 C         140.9778  140.0856  168.3295 C.ar    1  UNL1        0.0483
@<TRIPOS>UNITY_ATOM_ATTR
2 1
charge 1
@<TRIPOS>BOND
     1     1     2    1
     2     2     3   ar
     3     3     8    1
     4     8     9    1
     5     9    10    1
     6    10    11    1
     7    11    12    1
     8    12    13   ar
     9    13    14   ar
    10    14    15   ar
    11    15    16   ar
    12    16    17    1
    13    16    18   ar
    14     3     4   ar
    15     4     5   ar
    16     5     6   ar
    17     6     7   ar
    18     7    19    1
    19    19    20    1
    20    20    21    1
    21    21    22    1
    22    22    23    1
    23    23    24   ar
    24    24    25   ar
    25    25    26   ar
    26    26    27   ar
    27    27    28    1
    28    27    29   ar
    29     7     2   ar
    30    29    23   ar
    31    18    12   ar
@<TRIPOS>MOLECULE
*****
 29 31 0 0 0
SMALL
GASTEIGER

@<TRIPOS>ATOM
      1 C         141.6872  137.7595  161.7091 C.3     1  UNL1        0.4076
      2 N         142.4949  138.2622  162.8688 N.ar    1  UNL1       -0.1706
      3 C         143.7258  139.0841  162.6253 C.ar    1  UNL1        0.2030
      4 C         144.5335  139.5868  163.7849 C.ar    1  UNL1        0.0646
      5 C         144.1102  139.2678  165.1881 C.ar    1  UNL1        0.0115
      6 C         142.8793  138.4460  165.4317 C.ar    1  UNL1        0.0646
      7 C         142.0716  137.9432  164.2720 C.ar    1  UNL1        0.2030
      8 C         144.1491  139.4031  161.2220 C.3     1  UNL1        0.1006
      9 C         143.7906  140.7262  160.6130 C.3     1  UNL1        0.0584
     10 C         142.4063  140.9576  160.0834 C.3     1  UNL1        0.2060
     11 O         141.2949  141.3211  161.0228 O.3     1  UNL1       -0.4754
     12 C         141.5232  142.3464  162.0936 C.ar    1  UNL1        0.1394
     13 C         141.5599  143.8039  161.7407 C.ar    1  UNL1        0.0370
     14 C         141.7882  144.8292  162.8115 C.ar    1  UNL1        0.0040
     15 C         141.9796  144.3972  164.2351 C.ar    1  UNL1        0.0116
     16 C         141.9428  142.9398  164.5880 C.ar    1  UNL1        0.0607
     17 CL        142.1343  142.5077  166.0116 Cl      1  UNL1       -0.0821
     18 C         141.7146  141.9143  163.5172 C.ar    1  UNL1        0.0483
     19 C         140.8406  137.1213  164.5156 C.3     1  UNL1        0.1006
     20 C         139.5286  137.7971  164.7839 C.3     1  UNL1        0.0584
     21 C         139.0865  138.9445  163.9249 C.3     1  UNL1        0.2060
     22 O         138.0622  139.9134  164.4367 O.3     1  UNL1       -0.4754
     23 C         138.0744  141.3371  163.9641 C.ar    1  UNL1        0.1394
     24 C         137.8481  141.6480  162.5143 C.ar    1  UNL1        0.0370
     25 C         137.8603  143.0715  162.0417 C.ar    1  UNL1        0.0040
     26 C         138.0988  144.1841  163.0190 C.ar    1  UNL1        0.0116
     27 C         138.3251  143.8732  164.4689 C.ar    1  UNL1        0.0607
     28 CL        138.5636  144.9859  165.4462 Cl      1  UNL1       -0.0821
     29 C         138.3129  142.4497  164.9414 C.ar    1  UNL1        0.0483
@<TRIPOS>UNITY_ATOM_ATTR
2 1
charge 1
@<TRIPOS>BOND
     1     1     2    1
     2     2     3   ar
     3     3     8    1
     4     8     9    1
     5     9    10    1
     6    10    11    1
     7    11    12    1
     8    12    13   ar
     9    13    14   ar
    10    14    15   ar
    11    15    16   ar
    12    16    17    1
    13    16    18   ar
    14     3     4   ar
    15     4     5   ar
    16     5     6   ar
    17     6     7   ar
    18     7    19    1
    19    19    20    1
    20    20    21    1
    21    21    22    1
    22    22    23    1
    23    23    24   ar
    24    24    25   ar
    25    25    26   ar
    26    26    27   ar
    27    27    28    1
    28    27    29   ar
    29     7     2   ar
    30    29    23   ar
    31    18    12   ar
