@<TRIPOS>MOLECULE
*****
 40 44 0 0 0
SMALL
GASTEIGER

@<TRIPOS>ATOM
      1 C         140.8090  137.0032  163.6179 C.3     1  UNL1        0.0177
      2 C         141.2152  138.3464  164.1480 C.3     1  UNL1        0.0627
      3 C         141.6109  138.4962  165.5871 C.3     1  UNL1        0.0436
      4 C         142.0171  139.8393  166.1173 C.2     1  UNL1       -0.0044
      5 C         142.0275  141.0325  165.2084 C.2     1  UNL1        0.0735
      6 N         142.4710  142.2210  166.0089 N.2     1  UNL1       -0.2523
      7 C         142.7347  141.7623  167.4125 C.2     1  UNL1        0.0629
      8 C         143.1941  142.4949  168.6382 C.3     1  UNL1        0.0741
      9 C         143.3728  141.7554  169.9309 C.2     1  UNL1        0.0098
     10 C         143.0922  140.2834  169.9979 C.2     1  UNL1        0.1363
     11 F         143.2710  139.5439  171.2907 F       1  UNL1       -0.2045
     12 C         142.6329  139.5509  168.7722 C.2     1  UNL1        0.0302
     13 C         142.4542  140.2903  167.4795 C.2     1  UNL1        0.0134
     14 C         141.6318  140.8827  163.7693 C.3     1  UNL1        0.1250
     15 N         141.2256  139.5396  163.2391 N.3     1  UNL1       -0.2618
     16 C         141.6422  142.0759  162.8604 C.ar    1  UNL1        0.0529
     17 C         142.8335  142.3450  161.9897 C.ar    1  UNL1        0.1411
     18 F         144.0144  141.4209  162.0277 F       1  UNL1       -0.2043
     19 C         142.8439  143.5383  161.0807 C.ar    1  UNL1        0.0438
     20 C         141.6630  144.4624  161.0426 C.ar    1  UNL1        0.0492
     21 C         140.4716  144.1933  161.9135 C.ar    1  UNL1        0.0438
     22 C         140.4613  143.0001  162.8223 C.ar    1  UNL1        0.1411
     23 F         139.2700  142.7309  163.6932 F       1  UNL1       -0.2043
     24 N         141.6734  145.6556  160.1337 N.pl3   1  UNL1       -0.3316
     25 H         141.8755  146.5485  160.4959 H       1  UNL1        0.1468
     26 C         141.3759  145.4884  158.6731 C.3     1  UNL1        0.1014
     27 C         140.2875  144.8262  157.8813 C.3     1  UNL1        0.0933
     28 N         140.9552  145.2520  156.6074 N.3     1  UNL1       -0.2697
     29 C         142.0436  145.9142  157.3991 C.3     1  UNL1        0.0933
     30 C         140.6577  145.0848  155.1467 C.3     1  UNL1        0.0751
     31 C         139.7189  146.0315  154.4594 C.3     1  UNL1        0.0554
     32 C         139.4511  147.3837  155.0507 C.3     1  UNL1        0.1947
     33 F         138.7058  147.5011  156.3472 F       1  UNL1       -0.2343
     34 C         140.8299  139.3897  161.8000 C.3     1  UNL1        0.1425
     35 C         139.5536  140.0032  161.3054 C.3     1  UNL1        0.3049
     36 F         140.2919  140.6045  160.1463 F       1  UNL1       -0.2001
     37 F         138.8154  139.4019  162.4644 F       1  UNL1       -0.2001
     38 C         138.2773  140.6166  160.8107 C.3     1  UNL1        0.2057
     39 O         137.0101  140.4467  161.5952 O.3     1  UNL1       -0.3771
     40 H         136.7519  139.5117  161.5939 H       1  UNL1        0.2106
@<TRIPOS>BOND
     1     2     1    1
     2     2     3    1
     3     3     4    1
     4     4     5    2
     5     5     6    1
     6     6     7    2
     7     7     8    1
     8     8     9    1
     9     9    10    2
    10    10    11    1
    11    10    12    1
    12    12    13    2
    13     5    14    1
    14    14    16    1
    15    16    17   ar
    16    17    18    1
    17    17    19   ar
    18    19    20   ar
    19    20    24    1
    20    24    26    1
    21    26    27    1
    22    27    28    1
    23    28    30    1
    24    30    31    1
    25    31    32    1
    26    32    33    1
    27    28    29    1
    28    20    21   ar
    29    21    22   ar
    30    22    23    1
    31    14    15    1
    32    15    34    1
    33    34    35    1
    34    35    36    1
    35    35    37    1
    36    35    38    1
    37    38    39    1
    38    15     2    1
    39    13     4    1
    40    22    16   ar
    41    13     7    1
    42    29    26    1
    43    24    25    1
    44    39    40    1
@<TRIPOS>MOLECULE
*****
 40 44 0 0 0
SMALL
GASTEIGER

@<TRIPOS>ATOM
      1 C         140.7836  136.9085  163.5423 C.3     1  UNL1        0.0177
      2 C         141.1874  138.2685  164.0298 C.3     1  UNL1        0.0627
      3 C         141.5890  138.4631  165.4619 C.3     1  UNL1        0.0436
      4 C         141.9928  139.8230  165.9493 C.2     1  UNL1       -0.0044
      5 C         141.9950  140.9882  165.0047 C.2     1  UNL1        0.0735
      6 N         142.4379  142.2018  165.7669 N.2     1  UNL1       -0.2523
      7 C         142.7095  141.7867  167.1825 C.2     1  UNL1        0.0629
      8 C         143.1717  142.5576  168.3833 C.3     1  UNL1        0.0741
      9 C         143.3588  141.8581  169.6970 C.2     1  UNL1        0.0098
     10 C         143.0837  140.3879  169.8098 C.2     1  UNL1        0.1363
     11 F         143.2708  139.6885  171.1235 F       1  UNL1       -0.2045
     12 C         142.6215  139.6171  168.6089 C.2     1  UNL1        0.0302
     13 C         142.4344  140.3165  167.2953 C.2     1  UNL1        0.0134
     14 C         141.5934  140.7935  163.5726 C.3     1  UNL1        0.1250
     15 N         141.1896  139.4336  163.0852 N.3     1  UNL1       -0.2618
     16 C         141.5956  141.9587  162.6280 C.ar    1  UNL1        0.0529
     17 C         140.3998  142.8604  162.5466 C.ar    1  UNL1        0.1411
     18 F         139.2016  142.5970  163.4098 F       1  UNL1       -0.2043
     19 C         140.4020  144.0257  161.6019 C.ar    1  UNL1        0.0438
     20 C         141.6001  144.2891  160.7387 C.ar    1  UNL1        0.0492
     21 C         142.7960  143.3873  160.8202 C.ar    1  UNL1        0.0438
     22 C         142.7937  142.2222  161.7648 C.ar    1  UNL1        0.1411
     23 F         143.9896  141.3203  161.8463 F       1  UNL1       -0.2043
     24 N         141.6023  145.4543  159.7941 N.pl3   1  UNL1       -0.3316
     25 H         142.0944  146.2749  160.0259 H       1  UNL1        0.1468
     26 C         140.8548  145.3692  158.4964 C.3     1  UNL1        0.1014
     27 C         140.2042  146.3626  157.5800 C.3     1  UNL1        0.0933
     28 N         139.7977  145.2488  156.6612 N.3     1  UNL1       -0.2697
     29 C         140.4483  144.2554  157.5776 C.3     1  UNL1        0.0933
     30 C         139.0502  145.1637  155.3635 C.3     1  UNL1        0.0751
     31 C         137.6846  144.5444  155.3238 C.3     1  UNL1        0.0554
     32 C         137.4870  143.1336  155.7932 C.3     1  UNL1        0.1947
     33 F         136.9900  142.8682  157.1834 F       1  UNL1       -0.2343
     34 C         140.7880  139.2390  161.6531 C.3     1  UNL1        0.1425
     35 C         139.4741  139.7720  161.1635 C.3     1  UNL1        0.3049
     36 F         138.8157  139.3130  162.4307 F       1  UNL1       -0.2001
     37 F         140.1325  140.2309  159.8963 F       1  UNL1       -0.2001
     38 C         138.1603  140.3049  160.6739 C.3     1  UNL1        0.2057
     39 O         137.0223  140.4919  161.6332 O.3     1  UNL1       -0.3771
     40 H         136.7334  139.6272  161.9646 H       1  UNL1        0.2106
@<TRIPOS>BOND
     1     2     1    1
     2     2     3    1
     3     3     4    1
     4     4     5    2
     5     5     6    1
     6     6     7    2
     7     7     8    1
     8     8     9    1
     9     9    10    2
    10    10    11    1
    11    10    12    1
    12    12    13    2
    13     5    14    1
    14    14    16    1
    15    16    17   ar
    16    17    18    1
    17    17    19   ar
    18    19    20   ar
    19    20    24    1
    20    24    26    1
    21    26    27    1
    22    27    28    1
    23    28    30    1
    24    30    31    1
    25    31    32    1
    26    32    33    1
    27    28    29    1
    28    20    21   ar
    29    21    22   ar
    30    22    23    1
    31    14    15    1
    32    15    34    1
    33    34    35    1
    34    35    36    1
    35    35    37    1
    36    35    38    1
    37    38    39    1
    38    15     2    1
    39    13     4    1
    40    22    16   ar
    41    13     7    1
    42    29    26    1
    43    24    25    1
    44    39    40    1
@<TRIPOS>MOLECULE
*****
 40 44 0 0 0
SMALL
GASTEIGER

@<TRIPOS>ATOM
      1 C         140.8278  137.1537  164.0059 C.3     1  UNL1        0.0177
      2 C         140.8388  138.5677  164.5065 C.3     1  UNL1        0.0627
      3 C         140.7049  138.8446  165.9746 C.3     1  UNL1        0.0436
      4 C         140.7160  140.2585  166.4753 C.2     1  UNL1       -0.0044
      5 C         140.8609  141.3956  165.5077 C.2     1  UNL1        0.0735
      6 N         140.8382  142.6754  166.2898 N.2     1  UNL1       -0.2523
      7 C         140.6792  142.3293  167.7407 C.2     1  UNL1        0.0629
      8 C         140.5935  143.1812  168.9722 C.3     1  UNL1        0.0741
      9 C         140.4323  142.5395  170.3184 C.2     1  UNL1        0.0098
     10 C         140.3568  141.0458  170.4330 C.2     1  UNL1        0.1363
     11 F         140.1955  140.4041  171.7792 F       1  UNL1       -0.2045
     12 C         140.4425  140.1938  169.2014 C.2     1  UNL1        0.0302
     13 C         140.6037  140.8356  167.8553 C.2     1  UNL1        0.0134
     14 C         140.9948  141.1187  164.0396 C.3     1  UNL1        0.1250
     15 N         140.9838  139.7048  163.5390 N.3     1  UNL1       -0.2618
     16 C         141.1397  142.2558  163.0721 C.ar    1  UNL1        0.0529
     17 C         139.9240  142.8479  162.4232 C.ar    1  UNL1        0.1411
     18 F         138.5632  142.3031  162.7417 F       1  UNL1       -0.2043
     19 C         140.0689  143.9850  161.4556 C.ar    1  UNL1        0.0438
     20 C         141.4297  144.5299  161.1371 C.ar    1  UNL1        0.0492
     21 C         142.6455  143.9377  161.7860 C.ar    1  UNL1        0.0438
     22 C         142.5005  142.8007  162.7535 C.ar    1  UNL1        0.1411
     23 F         143.7162  142.2084  163.4025 F       1  UNL1       -0.2043
     24 N         141.5746  145.6669  160.1695 N.pl3   1  UNL1       -0.3316
     25 H         141.8846  146.5461  160.4861 H       1  UNL1        0.1468
     26 C         141.2472  145.4645  158.7197 C.3     1  UNL1        0.1014
     27 C         141.8252  145.9509  157.4239 C.3     1  UNL1        0.0933
     28 N         140.7842  145.1781  156.6695 N.3     1  UNL1       -0.2697
     29 C         140.2062  144.6917  157.9653 C.3     1  UNL1        0.0933
     30 C         140.4569  144.9757  155.2197 C.3     1  UNL1        0.0751
     31 C         139.3881  145.8032  154.5695 C.3     1  UNL1        0.0554
     32 C         139.1745  147.2243  154.9992 C.3     1  UNL1        0.1947
     33 F         138.6576  147.5222  156.3755 F       1  UNL1       -0.2343
     34 C         141.1177  139.4279  162.0708 C.3     1  UNL1        0.1425
     35 C         142.4535  139.5601  161.4014 C.3     1  UNL1        0.3049
     36 F         141.8473  140.4655  160.3706 F       1  UNL1       -0.2001
     37 F         143.0596  138.6546  162.4323 F       1  UNL1       -0.2001
     38 C         143.7893  139.6922  160.7321 C.3     1  UNL1        0.2057
     39 O         144.7672  138.5557  160.7785 O.3     1  UNL1       -0.3771
     40 H         145.0573  138.4159  161.6935 H       1  UNL1        0.2106
@<TRIPOS>BOND
     1     2     1    1
     2     2     3    1
     3     3     4    1
     4     4     5    2
     5     5     6    1
     6     6     7    2
     7     7     8    1
     8     8     9    1
     9     9    10    2
    10    10    11    1
    11    10    12    1
    12    12    13    2
    13     5    14    1
    14    14    16    1
    15    16    17   ar
    16    17    18    1
    17    17    19   ar
    18    19    20   ar
    19    20    24    1
    20    24    26    1
    21    26    27    1
    22    27    28    1
    23    28    30    1
    24    30    31    1
    25    31    32    1
    26    32    33    1
    27    28    29    1
    28    20    21   ar
    29    21    22   ar
    30    22    23    1
    31    14    15    1
    32    15    34    1
    33    34    35    1
    34    35    36    1
    35    35    37    1
    36    35    38    1
    37    38    39    1
    38    15     2    1
    39    13     4    1
    40    22    16   ar
    41    13     7    1
    42    29    26    1
    43    24    25    1
    44    39    40    1
@<TRIPOS>MOLECULE
*****
 40 44 0 0 0
SMALL
GASTEIGER

@<TRIPOS>ATOM
      1 C         139.2271  137.3284  163.3392 C.3     1  UNL1        0.0177
      2 C         139.5873  138.6694  163.9070 C.3     1  UNL1        0.0627
      3 C         139.5751  138.8831  165.3916 C.3     1  UNL1        0.0436
      4 C         139.9352  140.2239  165.9594 C.2     1  UNL1       -0.0044
      5 C         140.3075  141.3511  165.0424 C.2     1  UNL1        0.0735
      6 N         140.6136  142.5530  165.8860 N.2     1  UNL1       -0.2523
      7 C         140.4305  142.1687  167.3244 C.2     1  UNL1        0.0629
      8 C         140.5914  142.9434  168.5986 C.3     1  UNL1        0.0741
      9 C         140.3331  142.2787  169.9182 C.2     1  UNL1        0.0098
     10 C         139.9138  140.8392  169.9635 C.2     1  UNL1        0.1363
     11 F         139.6554  140.1745  171.2832 F       1  UNL1       -0.2045
     12 C         139.7529  140.0644  168.6893 C.2     1  UNL1        0.0302
     13 C         140.0113  140.7292  167.3697 C.2     1  UNL1        0.0134
     14 C         140.3196  141.1375  163.5577 C.3     1  UNL1        0.1250
     15 N         139.9595  139.7966  162.9900 N.3     1  UNL1       -0.2618
     16 C         140.6919  142.2647  162.6408 C.ar    1  UNL1        0.0529
     17 C         139.6582  143.2720  162.2326 C.ar    1  UNL1        0.1411
     18 F         138.2523  143.1522  162.7413 F       1  UNL1       -0.2043
     19 C         140.0306  144.3992  161.3156 C.ar    1  UNL1        0.0438
     20 C         141.4366  144.5191  160.8069 C.ar    1  UNL1        0.0492
     21 C         142.4703  143.5117  161.2151 C.ar    1  UNL1        0.0438
     22 C         142.0980  142.3845  162.1320 C.ar    1  UNL1        0.1411
     23 F         143.1316  141.3771  162.5403 F       1  UNL1       -0.2043
     24 N         141.8088  145.6463  159.8899 N.pl3   1  UNL1       -0.3316
     25 H         142.3421  146.4011  160.2291 H       1  UNL1        0.1468
     26 C         141.3686  145.6234  158.4561 C.3     1  UNL1        0.1014
     27 C         142.0245  145.9210  157.1404 C.3     1  UNL1        0.0933
     28 N         140.7461  145.5910  156.4285 N.3     1  UNL1       -0.2697
     29 C         140.0902  145.2934  157.7443 C.3     1  UNL1        0.0933
     30 C         140.3059  145.5681  154.9947 C.3     1  UNL1        0.0751
     31 C         140.4725  146.7891  154.1394 C.3     1  UNL1        0.0554
     32 C         139.6923  148.0326  154.4473 C.3     1  UNL1        0.1947
     33 F         140.2994  149.3808  154.1946 F       1  UNL1       -0.2343
     34 C         139.9717  139.5829  161.5053 C.3     1  UNL1        0.1425
     35 C         138.9122  140.2102  160.6487 C.3     1  UNL1        0.3049
     36 F         137.8507  139.6142  161.5250 F       1  UNL1       -0.2001
     37 F         139.9736  140.8063  159.7723 F       1  UNL1       -0.2001
     38 C         137.8527  140.8375  159.7920 C.3     1  UNL1        0.2057
     39 O         137.4645  140.1990  158.4912 O.3     1  UNL1       -0.3771
     40 H         138.2137  140.2366  157.8763 H       1  UNL1        0.2106
@<TRIPOS>BOND
     1     2     1    1
     2     2     3    1
     3     3     4    1
     4     4     5    2
     5     5     6    1
     6     6     7    2
     7     7     8    1
     8     8     9    1
     9     9    10    2
    10    10    11    1
    11    10    12    1
    12    12    13    2
    13     5    14    1
    14    14    16    1
    15    16    17   ar
    16    17    18    1
    17    17    19   ar
    18    19    20   ar
    19    20    24    1
    20    24    26    1
    21    26    27    1
    22    27    28    1
    23    28    30    1
    24    30    31    1
    25    31    32    1
    26    32    33    1
    27    28    29    1
    28    20    21   ar
    29    21    22   ar
    30    22    23    1
    31    14    15    1
    32    15    34    1
    33    34    35    1
    34    35    36    1
    35    35    37    1
    36    35    38    1
    37    38    39    1
    38    15     2    1
    39    13     4    1
    40    22    16   ar
    41    13     7    1
    42    29    26    1
    43    24    25    1
    44    39    40    1
@<TRIPOS>MOLECULE
*****
 40 44 0 0 0
SMALL
GASTEIGER

@<TRIPOS>ATOM
      1 C         140.9421  144.6537  164.0502 C.3     1  UNL1        0.0177
      2 C         140.7609  143.1919  163.7663 C.3     1  UNL1        0.0627
      3 C         139.9960  142.3305  164.7271 C.3     1  UNL1        0.0436
      4 C         139.8148  140.8688  164.4432 C.2     1  UNL1       -0.0044
      5 C         140.3984  140.2685  163.1986 C.2     1  UNL1        0.0735
      6 N         140.0593  138.8074  163.1858 N.2     1  UNL1       -0.2523
      7 C         139.2661  138.5047  164.4224 C.2     1  UNL1        0.0629
      8 C         138.6619  137.2336  164.9411 C.3     1  UNL1        0.0741
      9 C         137.9066  137.2365  166.2370 C.2     1  UNL1        0.0098
     10 C         137.7555  138.5106  167.0142 C.2     1  UNL1        0.1363
     11 F         137.0001  138.5134  168.3102 F       1  UNL1       -0.2045
     12 C         138.3597  139.7817  166.4955 C.2     1  UNL1        0.0302
     13 C         139.1150  139.7788  165.1996 C.2     1  UNL1        0.0134
     14 C         141.1633  141.1299  162.2379 C.3     1  UNL1        0.1250
     15 N         141.3445  142.5916  162.5217 N.3     1  UNL1       -0.2618
     16 C         141.7469  140.5296  160.9933 C.ar    1  UNL1        0.0529
     17 C         143.0401  139.7728  161.0609 C.ar    1  UNL1        0.1411
     18 F         143.7498  139.6163  162.3730 F       1  UNL1       -0.2043
     19 C         143.6238  139.1725  159.8162 C.ar    1  UNL1        0.0438
     20 C         142.9141  139.3291  158.5040 C.ar    1  UNL1        0.0492
     21 C         141.6207  140.0859  158.4365 C.ar    1  UNL1        0.0438
     22 C         141.0372  140.6861  159.6810 C.ar    1  UNL1        0.1411
     23 F         139.7439  141.4430  159.6136 F       1  UNL1       -0.2043
     24 N         143.4977  138.7288  157.2594 N.pl3   1  UNL1       -0.3316
     25 H         144.1987  139.2097  156.7630 H       1  UNL1        0.1468
     26 C         143.0132  137.3957  156.7713 C.3     1  UNL1        0.1014
     27 C         141.7602  136.5913  156.9523 C.3     1  UNL1        0.0933
     28 N         142.3281  135.5105  156.0809 N.3     1  UNL1       -0.2697
     29 C         143.5811  136.3150  155.8998 C.3     1  UNL1        0.0933
     30 C         141.8436  134.1775  155.5927 C.3     1  UNL1        0.0751
     31 C         142.4856  132.9173  156.0922 C.3     1  UNL1        0.0554
     32 C         143.6310  132.3094  155.3384 C.3     1  UNL1        0.1947
     33 F         145.0031  132.2926  155.9444 F       1  UNL1       -0.2343
     34 C         142.1094  143.4530  161.5610 C.3     1  UNL1        0.1425
     35 C         143.5636  143.1861  161.3084 C.3     1  UNL1        0.3049
     36 F         143.3082  143.1927  159.8304 F       1  UNL1       -0.2001
     37 F         143.8191  143.1795  162.7865 F       1  UNL1       -0.2001
     38 C         145.0179  142.9192  161.0559 C.3     1  UNL1        0.2057
     39 O         145.8388  142.2018  162.0863 O.3     1  UNL1       -0.3771
     40 H         145.9105  142.7513  162.8824 H       1  UNL1        0.2106
@<TRIPOS>BOND
     1     2     1    1
     2     2     3    1
     3     3     4    1
     4     4     5    2
     5     5     6    1
     6     6     7    2
     7     7     8    1
     8     8     9    1
     9     9    10    2
    10    10    11    1
    11    10    12    1
    12    12    13    2
    13     5    14    1
    14    14    16    1
    15    16    17   ar
    16    17    18    1
    17    17    19   ar
    18    19    20   ar
    19    20    24    1
    20    24    26    1
    21    26    27    1
    22    27    28    1
    23    28    30    1
    24    30    31    1
    25    31    32    1
    26    32    33    1
    27    28    29    1
    28    20    21   ar
    29    21    22   ar
    30    22    23    1
    31    14    15    1
    32    15    34    1
    33    34    35    1
    34    35    36    1
    35    35    37    1
    36    35    38    1
    37    38    39    1
    38    15     2    1
    39    13     4    1
    40    22    16   ar
    41    13     7    1
    42    29    26    1
    43    24    25    1
    44    39    40    1
@<TRIPOS>MOLECULE
*****
 40 44 0 0 0
SMALL
GASTEIGER

@<TRIPOS>ATOM
      1 C         138.3037  144.3222  163.8892 C.3     1  UNL1        0.0177
      2 C         139.2360  143.2349  164.3347 C.3     1  UNL1        0.0627
      3 C         139.5744  143.0861  165.7885 C.3     1  UNL1        0.0436
      4 C         140.5067  141.9987  166.2341 C.2     1  UNL1       -0.0044
      5 C         141.1006  141.0602  165.2259 C.2     1  UNL1        0.0735
      6 N         141.9818  140.0915  165.9573 N.2     1  UNL1       -0.2523
      7 C         141.9325  140.4313  167.4175 C.2     1  UNL1        0.0629
      8 C         142.6000  139.8196  168.6134 C.3     1  UNL1        0.0741
      9 C         142.3558  140.3867  169.9804 C.2     1  UNL1        0.0098
     10 C         141.4440  141.5655  170.1515 C.2     1  UNL1        0.1363
     11 F         141.1998  142.1326  171.5185 F       1  UNL1       -0.2045
     12 C         140.7765  142.1771  168.9555 C.2     1  UNL1        0.0302
     13 C         141.0208  141.6100  167.5886 C.2     1  UNL1        0.0134
     14 C         140.7623  141.2091  163.7721 C.3     1  UNL1        0.1250
     15 N         139.8300  142.2964  163.3266 N.3     1  UNL1       -0.2618
     16 C         141.3562  140.2706  162.7640 C.ar    1  UNL1        0.0529
     17 C         140.7048  138.9460  162.4974 C.ar    1  UNL1        0.1411
     18 F         139.4594  138.5599  163.2389 F       1  UNL1       -0.2043
     19 C         141.2988  138.0075  161.4891 C.ar    1  UNL1        0.0438
     20 C         142.5442  138.3936  160.7476 C.ar    1  UNL1        0.0492
     21 C         143.1957  139.7182  161.0142 C.ar    1  UNL1        0.0438
     22 C         142.6017  140.6567  162.0224 C.ar    1  UNL1        0.1411
     23 F         143.2530  141.9813  162.2891 F       1  UNL1       -0.2043
     24 N         143.1382  137.4551  159.7394 N.pl3   1  UNL1       -0.3316
     25 H         143.8815  136.8629  159.9962 H       1  UNL1        0.1468
     26 C         142.5996  137.4189  158.3399 C.3     1  UNL1        0.1014
     27 C         142.8106  136.5375  157.1446 C.3     1  UNL1        0.0933
     28 N         141.8378  137.3677  156.3607 N.3     1  UNL1       -0.2697
     29 C         141.6269  138.2491  157.5559 C.3     1  UNL1        0.0933
     30 C         141.2992  137.3315  154.9612 C.3     1  UNL1        0.0751
     31 C         140.0224  136.6011  154.6676 C.3     1  UNL1        0.0554
     32 C         138.7024  137.2575  154.9440 C.3     1  UNL1        0.1947
     33 F         138.6504  138.5412  155.7182 F       1  UNL1       -0.2343
     34 C         139.4916  142.4452  161.8728 C.3     1  UNL1        0.1425
     35 C         138.6467  141.4111  161.1897 C.3     1  UNL1        0.3049
     36 F         137.6038  141.5577  162.2578 F       1  UNL1       -0.2001
     37 F         139.6896  141.2644  160.1216 F       1  UNL1       -0.2001
     38 C         137.8017  140.3769  160.5067 C.3     1  UNL1        0.2057
     39 O         136.9757  139.4259  161.3212 O.3     1  UNL1       -0.3771
     40 H         137.5610  138.8454  161.8324 H       1  UNL1        0.2106
@<TRIPOS>BOND
     1     2     1    1
     2     2     3    1
     3     3     4    1
     4     4     5    2
     5     5     6    1
     6     6     7    2
     7     7     8    1
     8     8     9    1
     9     9    10    2
    10    10    11    1
    11    10    12    1
    12    12    13    2
    13     5    14    1
    14    14    16    1
    15    16    17   ar
    16    17    18    1
    17    17    19   ar
    18    19    20   ar
    19    20    24    1
    20    24    26    1
    21    26    27    1
    22    27    28    1
    23    28    30    1
    24    30    31    1
    25    31    32    1
    26    32    33    1
    27    28    29    1
    28    20    21   ar
    29    21    22   ar
    30    22    23    1
    31    14    15    1
    32    15    34    1
    33    34    35    1
    34    35    36    1
    35    35    37    1
    36    35    38    1
    37    38    39    1
    38    15     2    1
    39    13     4    1
    40    22    16   ar
    41    13     7    1
    42    29    26    1
    43    24    25    1
    44    39    40    1
@<TRIPOS>MOLECULE
*****
 40 44 0 0 0
SMALL
GASTEIGER

@<TRIPOS>ATOM
      1 C         138.8883  144.9352  164.8373 C.3     1  UNL1        0.0177
      2 C         139.7560  143.7227  165.0020 C.3     1  UNL1        0.0627
      3 C         140.0120  143.1640  166.3703 C.3     1  UNL1        0.0436
      4 C         140.8797  141.9515  166.5350 C.2     1  UNL1       -0.0044
      5 C         141.4912  141.2978  165.3315 C.2     1  UNL1        0.0735
      6 N         142.2972  140.1233  165.8013 N.2     1  UNL1       -0.2523
      7 C         142.1838  140.0511  167.2953 C.2     1  UNL1        0.0629
      8 C         142.7651  139.1024  168.3013 C.3     1  UNL1        0.0741
      9 C         142.4702  139.2837  169.7608 C.2     1  UNL1        0.0098
     10 C         141.5941  140.4137  170.2143 C.2     1  UNL1        0.1363
     11 F         141.2993  140.5950  171.6739 F       1  UNL1       -0.2045
     12 C         141.0128  141.3623  169.2083 C.2     1  UNL1        0.0302
     13 C         141.3077  141.1810  167.7488 C.2     1  UNL1        0.0134
     14 C         141.2352  141.8565  163.9631 C.3     1  UNL1        0.1250
     15 N         140.3675  143.0690  163.7984 N.3     1  UNL1       -0.2618
     16 C         141.8467  141.2028  162.7596 C.ar    1  UNL1        0.0529
     17 C         141.1974  139.9956  162.1506 C.ar    1  UNL1        0.1411
     18 F         139.9365  139.4421  162.7452 F       1  UNL1       -0.2043
     19 C         141.8091  139.3419  160.9470 C.ar    1  UNL1        0.0438
     20 C         143.0700  139.8955  160.3524 C.ar    1  UNL1        0.0492
     21 C         143.7194  141.1028  160.9613 C.ar    1  UNL1        0.0438
     22 C         143.1078  141.7564  162.1649 C.ar    1  UNL1        0.1411
     23 F         143.7570  142.9637  162.7739 F       1  UNL1       -0.2043
     24 N         143.6816  139.2418  159.1488 N.pl3   1  UNL1       -0.3316
     25 H         144.6511  139.3089  158.9915 H       1  UNL1        0.1468
     26 C         142.8160  138.4857  158.1848 C.3     1  UNL1        0.1014
     27 C         141.7717  138.8628  157.1763 C.3     1  UNL1        0.0933
     28 N         141.5919  137.4165  156.8217 N.3     1  UNL1       -0.2697
     29 C         142.6362  137.0394  157.8302 C.3     1  UNL1        0.0933
     30 C         140.7263  136.6605  155.8577 C.3     1  UNL1        0.0751
     31 C         141.3442  135.9658  154.6806 C.3     1  UNL1        0.0554
     32 C         141.8515  134.5613  154.8201 C.3     1  UNL1        0.1947
     33 F         141.8986  133.9114  156.1712 F       1  UNL1       -0.2343
     34 C         140.1115  143.6277  162.4301 C.3     1  UNL1        0.1425
     35 C         139.2916  142.8500  161.4438 C.3     1  UNL1        0.3049
     36 F         140.3935  142.9700  160.4331 F       1  UNL1       -0.2001
     37 F         138.1897  142.7299  162.4544 F       1  UNL1       -0.2001
     38 C         138.4717  142.0722  160.4574 C.3     1  UNL1        0.2057
     39 O         137.8063  140.7950  160.8770 O.3     1  UNL1       -0.3771
     40 H         138.4825  140.1313  161.0850 H       1  UNL1        0.2106
@<TRIPOS>BOND
     1     2     1    1
     2     2     3    1
     3     3     4    1
     4     4     5    2
     5     5     6    1
     6     6     7    2
     7     7     8    1
     8     8     9    1
     9     9    10    2
    10    10    11    1
    11    10    12    1
    12    12    13    2
    13     5    14    1
    14    14    16    1
    15    16    17   ar
    16    17    18    1
    17    17    19   ar
    18    19    20   ar
    19    20    24    1
    20    24    26    1
    21    26    27    1
    22    27    28    1
    23    28    30    1
    24    30    31    1
    25    31    32    1
    26    32    33    1
    27    28    29    1
    28    20    21   ar
    29    21    22   ar
    30    22    23    1
    31    14    15    1
    32    15    34    1
    33    34    35    1
    34    35    36    1
    35    35    37    1
    36    35    38    1
    37    38    39    1
    38    15     2    1
    39    13     4    1
    40    22    16   ar
    41    13     7    1
    42    29    26    1
    43    24    25    1
    44    39    40    1
@<TRIPOS>MOLECULE
*****
 40 44 0 0 0
SMALL
GASTEIGER

@<TRIPOS>ATOM
      1 C         142.0683  144.8795  163.9325 C.3     1  UNL1        0.0177
      2 C         141.6646  143.4733  163.6009 C.3     1  UNL1        0.0627
      3 C         140.8811  142.6645  164.5919 C.3     1  UNL1        0.0436
      4 C         140.4775  141.2584  164.2603 C.2     1  UNL1       -0.0044
      5 C         140.8573  140.6611  162.9378 C.2     1  UNL1        0.0735
      6 N         140.3229  139.2604  162.8912 N.2     1  UNL1       -0.2523
      7 C         139.6127  138.9919  164.1849 C.2     1  UNL1        0.0629
      8 C         138.8914  137.7825  164.7017 C.3     1  UNL1        0.0741
      9 C         138.2656  137.8080  166.0646 C.2     1  UNL1        0.0098
     10 C         138.3612  139.0429  166.9108 C.2     1  UNL1        0.1363
     11 F         137.7354  139.0684  168.2738 F       1  UNL1       -0.2045
     12 C         139.0825  140.2522  166.3940 C.2     1  UNL1        0.0302
     13 C         139.7083  140.2267  165.0310 C.2     1  UNL1        0.0134
     14 C         141.6408  141.4700  161.9469 C.3     1  UNL1        0.1250
     15 N         142.0445  142.8761  162.2784 N.3     1  UNL1       -0.2618
     16 C         142.0207  140.8728  160.6243 C.ar    1  UNL1        0.0529
     17 C         141.0193  140.8225  159.5088 C.ar    1  UNL1        0.1411
     18 F         139.6380  141.3695  159.7157 F       1  UNL1       -0.2043
     19 C         141.3992  140.2252  158.1863 C.ar    1  UNL1        0.0438
     20 C         142.7805  139.6783  157.9794 C.ar    1  UNL1        0.0492
     21 C         143.7819  139.7285  159.0950 C.ar    1  UNL1        0.0438
     22 C         143.4020  140.3258  160.4174 C.ar    1  UNL1        0.1411
     23 F         144.4034  140.3761  161.5331 F       1  UNL1       -0.2043
     24 N         143.1603  139.0810  156.6569 N.pl3   1  UNL1       -0.3316
     25 H         143.5228  139.6547  155.9436 H       1  UNL1        0.1468
     26 C         142.9879  137.6097  156.4211 C.3     1  UNL1        0.1014
     27 C         143.8101  136.5360  155.7721 C.3     1  UNL1        0.0933
     28 N         142.7440  135.5290  156.0876 N.3     1  UNL1       -0.2697
     29 C         141.9218  136.6028  156.7366 C.3     1  UNL1        0.0933
     30 C         142.5715  134.0577  155.8518 C.3     1  UNL1        0.0751
     31 C         143.2200  133.0692  156.7750 C.3     1  UNL1        0.0554
     32 C         144.1082  133.5495  157.8841 C.3     1  UNL1        0.1947
     33 F         145.3179  132.7531  158.2746 F       1  UNL1       -0.2343
     34 C         142.8280  143.6849  161.2875 C.3     1  UNL1        0.1425
     35 C         142.1554  144.2227  160.0593 C.3     1  UNL1        0.3049
     36 F         143.1823  143.5459  159.2006 F       1  UNL1       -0.2001
     37 F         141.1285  144.8995  160.9180 F       1  UNL1       -0.2001
     38 C         141.4828  144.7604  158.8312 C.3     1  UNL1        0.2057
     39 O         140.2967  144.0473  158.2524 O.3     1  UNL1       -0.3771
     40 H         140.5724  143.1789  157.9194 H       1  UNL1        0.2106
@<TRIPOS>BOND
     1     2     1    1
     2     2     3    1
     3     3     4    1
     4     4     5    2
     5     5     6    1
     6     6     7    2
     7     7     8    1
     8     8     9    1
     9     9    10    2
    10    10    11    1
    11    10    12    1
    12    12    13    2
    13     5    14    1
    14    14    16    1
    15    16    17   ar
    16    17    18    1
    17    17    19   ar
    18    19    20   ar
    19    20    24    1
    20    24    26    1
    21    26    27    1
    22    27    28    1
    23    28    30    1
    24    30    31    1
    25    31    32    1
    26    32    33    1
    27    28    29    1
    28    20    21   ar
    29    21    22   ar
    30    22    23    1
    31    14    15    1
    32    15    34    1
    33    34    35    1
    34    35    36    1
    35    35    37    1
    36    35    38    1
    37    38    39    1
    38    15     2    1
    39    13     4    1
    40    22    16   ar
    41    13     7    1
    42    29    26    1
    43    24    25    1
    44    39    40    1
@<TRIPOS>MOLECULE
*****
 40 44 0 0 0
SMALL
GASTEIGER

@<TRIPOS>ATOM
      1 C         140.2148  137.2092  164.1793 C.3     1  UNL1        0.0177
      2 C         140.2356  138.6356  164.6431 C.3     1  UNL1        0.0627
      3 C         140.3144  138.9467  166.1084 C.3     1  UNL1        0.0436
      4 C         140.3353  140.3730  166.5723 C.2     1  UNL1       -0.0044
      5 C         140.2774  141.4883  165.5708 C.2     1  UNL1        0.0735
      6 N         140.3143  142.7869  166.3206 N.2     1  UNL1       -0.2523
      7 C         140.3949  142.4742  167.7855 C.2     1  UNL1        0.0629
      8 C         140.4582  143.3553  168.9978 C.3     1  UNL1        0.0741
      9 C         140.5345  142.7444  170.3656 C.2     1  UNL1        0.0098
     10 C         140.5475  141.2526  170.5211 C.2     1  UNL1        0.1363
     11 F         140.6238  140.6417  171.8891 F       1  UNL1       -0.2045
     12 C         140.4842  140.3715  169.3088 C.2     1  UNL1        0.0302
     13 C         140.4079  140.9824  167.9410 C.2     1  UNL1        0.0134
     14 C         140.1986  141.1772  164.1055 C.3     1  UNL1        0.1250
     15 N         140.1778  139.7509  163.6417 N.3     1  UNL1       -0.2618
     16 C         140.1408  142.2924  163.1041 C.ar    1  UNL1        0.0529
     17 C         138.8424  142.9947  162.8379 C.ar    1  UNL1        0.1411
     18 F         137.6019  142.5819  163.5732 F       1  UNL1       -0.2043
     19 C         138.7846  144.1100  161.8364 C.ar    1  UNL1        0.0438
     20 C         140.0251  144.5229  161.1011 C.ar    1  UNL1        0.0492
     21 C         141.3235  143.8205  161.3673 C.ar    1  UNL1        0.0438
     22 C         141.3813  142.7053  162.3687 C.ar    1  UNL1        0.1411
     23 F         142.6797  142.0028  162.6349 F       1  UNL1       -0.2043
     24 N         139.9672  145.6381  160.0997 N.pl3   1  UNL1       -0.3316
     25 H         139.6178  146.5196  160.3643 H       1  UNL1        0.1468
     26 C         140.4417  145.4102  158.6950 C.3     1  UNL1        0.1014
     27 C         141.5559  145.9536  157.8505 C.3     1  UNL1        0.0933
     28 N         141.1127  145.0879  156.7086 N.3     1  UNL1       -0.2697
     29 C         139.9985  144.5444  157.5531 C.3     1  UNL1        0.0933
     30 C         141.5872  144.8600  155.3040 C.3     1  UNL1        0.0751
     31 C         142.8911  144.1609  155.0569 C.3     1  UNL1        0.0554
     32 C         143.2418  142.9297  155.8386 C.3     1  UNL1        0.1947
     33 F         144.6488  142.7185  156.3139 F       1  UNL1       -0.2343
     34 C         140.0990  139.4398  162.1764 C.3     1  UNL1        0.1425
     35 C         138.8252  139.6885  161.4243 C.3     1  UNL1        0.3049
     36 F         138.0564  138.9572  162.4845 F       1  UNL1       -0.2001
     37 F         139.5940  140.4197  160.3640 F       1  UNL1       -0.2001
     38 C         137.5515  139.9372  160.6722 C.3     1  UNL1        0.2057
     39 O         137.5589  139.9635  159.1724 O.3     1  UNL1       -0.3771
     40 H         138.0797  140.7219  158.8649 H       1  UNL1        0.2106
@<TRIPOS>BOND
     1     2     1    1
     2     2     3    1
     3     3     4    1
     4     4     5    2
     5     5     6    1
     6     6     7    2
     7     7     8    1
     8     8     9    1
     9     9    10    2
    10    10    11    1
    11    10    12    1
    12    12    13    2
    13     5    14    1
    14    14    16    1
    15    16    17   ar
    16    17    18    1
    17    17    19   ar
    18    19    20   ar
    19    20    24    1
    20    24    26    1
    21    26    27    1
    22    27    28    1
    23    28    30    1
    24    30    31    1
    25    31    32    1
    26    32    33    1
    27    28    29    1
    28    20    21   ar
    29    21    22   ar
    30    22    23    1
    31    14    15    1
    32    15    34    1
    33    34    35    1
    34    35    36    1
    35    35    37    1
    36    35    38    1
    37    38    39    1
    38    15     2    1
    39    13     4    1
    40    22    16   ar
    41    13     7    1
    42    29    26    1
    43    24    25    1
    44    39    40    1
