@<TRIPOS>MOLECULE
*****
 26 29 0 0 0
SMALL
GASTEIGER

@<TRIPOS>ATOM
      1 C         142.0671  141.9190  164.9573 C.3     1  UNL1        0.1686
      2 C         142.4180  140.5693  164.4047 C.3     1  UNL1        0.0595
      3 C         143.8081  140.2999  163.9098 C.3     1  UNL1        0.0614
      4 C         145.2530  140.4771  163.5480 C.3     1  UNL1        0.0175
      5 C         145.6503  141.8800  163.9004 C.3     1  UNL1        0.0175
      6 C         144.4510  142.5698  164.4799 C.3     1  UNL1        0.0614
      7 C         143.1063  142.9991  165.0150 C.3     1  UNL1        0.0595
      8 N         143.3125  141.5932  164.4858 N.3     1  UNL1       -0.2709
      9 O         140.6769  142.1885  165.4522 O.3     1  UNL1       -0.4791
     10 C         140.0000  142.0844  169.3613 C.ar    1  UNL1        0.0561
     11 C         139.4080  140.7142  169.5101 C.ar    1  UNL1        0.0047
     12 C         139.2389  139.8355  168.3062 C.ar    1  UNL1        0.0033
     13 C         139.6619  140.3269  166.9537 C.ar    1  UNL1        0.0369
     14 C         140.2539  141.6970  166.8049 C.ar    1  UNL1        0.1385
     15 C         140.4230  142.5758  168.0086 C.ar    1  UNL1        0.0414
     16 N         140.0802  144.4538  170.4240 N.am    1  UNL1       -0.3253
     17 C         140.1691  142.9631  170.5651 C.2     1  UNL1        0.2428
     18 O         140.4271  142.3511  171.9101 O.2     1  UNL1       -0.2704
     19 H         140.1911  145.0305  171.2141 H       1  UNL1        0.1453
     20 H         139.9108  144.8555  169.5413 H       1  UNL1        0.1453
     21 C         141.9223  141.8626  164.9807 C.3     1  UNL1        0.1056
     22 C         141.0138  142.7716  164.2071 C.ar    1  UNL1        0.0234
     23 C         140.8167  144.2382  164.4521 C.ar    1  UNL1        0.0041
     24 C         139.8239  144.7465  163.4491 C.ar    1  UNL1        0.0072
     25 C         139.4075  143.5939  162.5841 C.ar    1  UNL1        0.0352
     26 S         140.1429  142.3734  163.0526 S.2     1  UNL1       -0.0894
@<TRIPOS>BOND
     1    16    17   am
     2    17    18    2
     3    17    10    1
     4    10    11   ar
     5    11    12   ar
     6    12    13   ar
     7    13    14   ar
     8    14     9    1
     9     1     9    1
    10     1     2    1
    11     3     2    1
    12     3     4    1
    13     4     5    1
    14     6     5    1
    15     6     7    1
    16     6     8    1
    17     8    21    1
    18    21    22    1
    19    22    23   ar
    20    23    24   ar
    21    24    25   ar
    22    25    26   ar
    23    14    15   ar
    24    15    10   ar
    25     7     1    1
    26    26    22   ar
    27     8     3    1
    28    16    19    1
    29    16    20    1
@<TRIPOS>MOLECULE
*****
 26 29 0 0 0
SMALL
GASTEIGER

@<TRIPOS>ATOM
      1 C         140.7402  142.0501  167.2820 C.3     1  UNL1        0.1686
      2 C         142.1014  141.4201  167.2998 C.3     1  UNL1        0.0595
      3 C         143.0445  141.7041  168.4311 C.3     1  UNL1        0.0614
      4 C         143.6240  142.2495  169.7025 C.3     1  UNL1        0.0175
      5 C         142.5968  143.1409  170.3352 C.3     1  UNL1        0.0175
      6 C         141.3824  143.1463  169.4547 C.3     1  UNL1        0.0614
      7 C         140.3222  142.9640  168.3956 C.3     1  UNL1        0.0595
      8 N         141.6591  142.2583  168.2779 N.3     1  UNL1       -0.2709
      9 O         139.7970  141.7662  166.1506 O.3     1  UNL1       -0.4791
     10 C         139.2820  138.3007  164.2866 C.ar    1  UNL1        0.0561
     11 C         138.4954  137.5408  165.3130 C.ar    1  UNL1        0.0047
     12 C         138.1426  138.1894  166.6187 C.ar    1  UNL1        0.0033
     13 C         138.5764  139.5978  166.8979 C.ar    1  UNL1        0.0369
     14 C         139.3631  140.3577  165.8714 C.ar    1  UNL1        0.1385
     15 C         139.7159  139.7092  164.5658 C.ar    1  UNL1        0.0414
     16 N         138.6622  137.6862  161.8395 N.am    1  UNL1       -0.3253
     17 C         139.6348  137.6521  162.9809 C.2     1  UNL1        0.2428
     18 O         140.9604  136.9693  162.8166 O.2     1  UNL1       -0.2704
     19 H         138.8937  137.2605  160.9825 H       1  UNL1        0.1453
     20 H         137.7922  138.1343  161.9473 H       1  UNL1        0.1453
     21 C         140.7160  141.9743  167.1466 C.3     1  UNL1        0.1056
     22 C         140.5269  142.9865  166.0557 C.ar    1  UNL1        0.0234
     23 C         139.3272  143.8672  165.8685 C.ar    1  UNL1        0.0041
     24 C         139.5632  144.7206  164.6577 C.ar    1  UNL1        0.0072
     25 C         140.9087  144.3672  164.0966 C.ar    1  UNL1        0.0352
     26 S         141.5043  143.2955  164.9607 S.2     1  UNL1       -0.0894
@<TRIPOS>BOND
     1    16    17   am
     2    17    18    2
     3    17    10    1
     4    10    11   ar
     5    11    12   ar
     6    12    13   ar
     7    13    14   ar
     8    14     9    1
     9     1     9    1
    10     1     2    1
    11     3     2    1
    12     3     4    1
    13     4     5    1
    14     6     5    1
    15     6     7    1
    16     6     8    1
    17     8    21    1
    18    21    22    1
    19    22    23   ar
    20    23    24   ar
    21    24    25   ar
    22    25    26   ar
    23    14    15   ar
    24    15    10   ar
    25     7     1    1
    26    26    22   ar
    27     8     3    1
    28    16    19    1
    29    16    20    1
@<TRIPOS>MOLECULE
*****
 26 29 0 0 0
SMALL
GASTEIGER

@<TRIPOS>ATOM
      1 C         139.5981  141.1306  164.7649 C.3     1  UNL1        0.1686
      2 C         140.5862  142.2011  164.4077 C.3     1  UNL1        0.0595
      3 C         140.1046  143.5225  163.8863 C.3     1  UNL1        0.0614
      4 C         139.2082  144.6330  163.4247 C.3     1  UNL1        0.0175
      5 C         137.7892  144.1598  163.5360 C.3     1  UNL1        0.0175
      6 C         137.8086  142.7568  164.0664 C.3     1  UNL1        0.0614
      7 C         138.1284  141.3815  164.6005 C.3     1  UNL1        0.0595
      8 N         139.2397  142.3629  164.2828 N.3     1  UNL1       -0.2709
      9 O         140.0797  139.8091  165.2863 O.3     1  UNL1       -0.4791
     10 C         140.6640  139.9490  169.2092 C.ar    1  UNL1        0.0561
     11 C         142.1150  139.5780  169.2930 C.ar    1  UNL1        0.0047
     12 C         142.8875  139.2840  168.0413 C.ar    1  UNL1        0.0033
     13 C         142.2091  139.3610  166.7058 C.ar    1  UNL1        0.0369
     14 C         140.7581  139.7320  166.6219 C.ar    1  UNL1        0.1385
     15 C         139.9856  140.0260  167.8736 C.ar    1  UNL1        0.0414
     16 N         139.7128  139.1760  171.5000 N.am    1  UNL1       -0.3253
     17 C         139.8915  140.2430  170.4609 C.2     1  UNL1        0.2428
     18 O         139.2977  141.6040  170.6736 O.2     1  UNL1       -0.2704
     19 H         139.2058  139.3690  172.3215 H       1  UNL1        0.1453
     20 H         140.1025  138.2828  171.3604 H       1  UNL1        0.1453
     21 C         139.7213  141.0415  164.8043 C.3     1  UNL1        0.1056
     22 C         139.6547  139.8221  163.9333 C.ar    1  UNL1        0.0234
     23 C         138.6935  138.6807  164.0863 C.ar    1  UNL1        0.0041
     24 C         138.9823  137.6832  163.0039 C.ar    1  UNL1        0.0072
     25 C         140.1220  138.2082  162.1819 C.ar    1  UNL1        0.0352
     26 S         140.5375  139.5300  162.7563 S.2     1  UNL1       -0.0894
@<TRIPOS>BOND
     1    16    17   am
     2    17    18    2
     3    17    10    1
     4    10    11   ar
     5    11    12   ar
     6    12    13   ar
     7    13    14   ar
     8    14     9    1
     9     1     9    1
    10     1     2    1
    11     3     2    1
    12     3     4    1
    13     4     5    1
    14     6     5    1
    15     6     7    1
    16     6     8    1
    17     8    21    1
    18    21    22    1
    19    22    23   ar
    20    23    24   ar
    21    24    25   ar
    22    25    26   ar
    23    14    15   ar
    24    15    10   ar
    25     7     1    1
    26    26    22   ar
    27     8     3    1
    28    16    19    1
    29    16    20    1
@<TRIPOS>MOLECULE
*****
 26 29 0 0 0
SMALL
GASTEIGER

@<TRIPOS>ATOM
      1 C         141.7042  140.3549  165.4358 C.3     1  UNL1        0.1686
      2 C         142.3606  141.4988  164.7212 C.3     1  UNL1        0.0595
      3 C         143.7662  141.3603  164.2162 C.3     1  UNL1        0.0614
      4 C         145.1196  140.7956  163.9008 C.3     1  UNL1        0.0175
      5 C         145.1732  139.3948  164.4343 C.3     1  UNL1        0.0175
      6 C         143.8529  139.0936  165.0794 C.3     1  UNL1        0.0614
      7 C         142.4535  139.0724  165.6453 C.3     1  UNL1        0.0595
      8 N         142.9834  140.3083  164.9447 N.3     1  UNL1       -0.2709
      9 O         140.2986  140.4934  165.9408 O.3     1  UNL1       -0.4791
     10 C         140.3782  142.4003  169.4203 C.ar    1  UNL1        0.0561
     11 C         139.5491  141.4804  170.2667 C.ar    1  UNL1        0.0047
     12 C         138.9699  140.2315  169.6712 C.ar    1  UNL1        0.0033
     13 C         139.2197  139.9025  168.2292 C.ar    1  UNL1        0.0369
     14 C         140.0487  140.8224  167.3828 C.ar    1  UNL1        0.1385
     15 C         140.6280  142.0713  167.9783 C.ar    1  UNL1        0.0414
     16 N         142.3999  143.6855  170.4259 N.am    1  UNL1       -0.3253
     17 C         140.9574  143.6492  170.0159 C.2     1  UNL1        0.2428
     18 O         140.0942  144.8619  170.2014 O.2     1  UNL1       -0.2704
     19 H         142.7800  144.5052  170.8168 H       1  UNL1        0.1453
     20 H         142.9664  142.8896  170.3042 H       1  UNL1        0.1453
     21 C         141.5778  140.4469  165.4497 C.3     1  UNL1        0.1056
     22 C         140.4579  139.7274  164.7580 C.ar    1  UNL1        0.0234
     23 C         140.0665  138.2950  164.9698 C.ar    1  UNL1        0.0041
     24 C         138.8996  137.9963  164.0758 C.ar    1  UNL1        0.0072
     25 C         138.5699  139.2442  163.3115 C.ar    1  UNL1        0.0352
     26 S         139.5330  140.3140  163.7332 S.2     1  UNL1       -0.0894
@<TRIPOS>BOND
     1    16    17   am
     2    17    18    2
     3    17    10    1
     4    10    11   ar
     5    11    12   ar
     6    12    13   ar
     7    13    14   ar
     8    14     9    1
     9     1     9    1
    10     1     2    1
    11     3     2    1
    12     3     4    1
    13     4     5    1
    14     6     5    1
    15     6     7    1
    16     6     8    1
    17     8    21    1
    18    21    22    1
    19    22    23   ar
    20    23    24   ar
    21    24    25   ar
    22    25    26   ar
    23    14    15   ar
    24    15    10   ar
    25     7     1    1
    26    26    22   ar
    27     8     3    1
    28    16    19    1
    29    16    20    1
@<TRIPOS>MOLECULE
*****
 26 29 0 0 0
SMALL
GASTEIGER

@<TRIPOS>ATOM
      1 C         140.0904  141.0282  164.5736 C.3     1  UNL1        0.1686
      2 C         141.0347  140.4470  163.5634 C.3     1  UNL1        0.0595
      3 C         140.7475  139.1077  162.9520 C.3     1  UNL1        0.0614
      4 C         140.0863  137.8024  162.6218 C.3     1  UNL1        0.0175
      5 C         138.8302  137.7003  163.4353 C.3     1  UNL1        0.0175
      6 C         138.7151  138.9425  164.2682 C.3     1  UNL1        0.0614
      7 C         138.8590  140.2701  164.9724 C.3     1  UNL1        0.0595
      8 N         139.9001  139.8123  163.9695 N.3     1  UNL1       -0.2709
      9 O         140.3775  142.3676  165.1851 O.3     1  UNL1       -0.4791
     10 C         141.0160  143.0267  169.0461 C.ar    1  UNL1        0.0561
     11 C         142.4556  142.6235  169.1683 C.ar    1  UNL1        0.0047
     12 C         143.2025  142.1350  167.9627 C.ar    1  UNL1        0.0033
     13 C         142.5098  142.0497  166.6350 C.ar    1  UNL1        0.0369
     14 C         141.0702  142.4529  166.5128 C.ar    1  UNL1        0.1385
     15 C         140.3233  142.9414  167.7183 C.ar    1  UNL1        0.0414
     16 N         139.8876  142.5539  171.3381 N.am    1  UNL1       -0.3253
     17 C         140.2691  143.5152  170.2517 C.2     1  UNL1        0.2428
     18 O         139.9036  144.9652  170.3709 O.2     1  UNL1       -0.2704
     19 H         139.3974  142.8745  172.1294 H       1  UNL1        0.1453
     20 H         140.1275  141.6022  171.2599 H       1  UNL1        0.1453
     21 C         140.1873  141.1516  164.5809 C.3     1  UNL1        0.1056
     22 C         139.4624  142.3704  164.0918 C.ar    1  UNL1        0.0234
     23 C         138.0968  142.8165  164.5233 C.ar    1  UNL1        0.0041
     24 C         137.7663  144.0788  163.7835 C.ar    1  UNL1        0.0072
     25 C         138.9275  144.4128  162.8947 C.ar    1  UNL1        0.0352
     26 S         139.9757  143.3569  163.0853 S.2     1  UNL1       -0.0894
@<TRIPOS>BOND
     1    16    17   am
     2    17    18    2
     3    17    10    1
     4    10    11   ar
     5    11    12   ar
     6    12    13   ar
     7    13    14   ar
     8    14     9    1
     9     1     9    1
    10     1     2    1
    11     3     2    1
    12     3     4    1
    13     4     5    1
    14     6     5    1
    15     6     7    1
    16     6     8    1
    17     8    21    1
    18    21    22    1
    19    22    23   ar
    20    23    24   ar
    21    24    25   ar
    22    25    26   ar
    23    14    15   ar
    24    15    10   ar
    25     7     1    1
    26    26    22   ar
    27     8     3    1
    28    16    19    1
    29    16    20    1
@<TRIPOS>MOLECULE
*****
 26 29 0 0 0
SMALL
GASTEIGER

@<TRIPOS>ATOM
      1 C         141.6579  142.2511  165.9611 C.3     1  UNL1        0.1686
      2 C         140.5964  143.1295  165.3679 C.3     1  UNL1        0.0595
      3 C         140.9766  144.2350  164.4281 C.3     1  UNL1        0.0614
      4 C         141.7847  145.1703  163.5783 C.3     1  UNL1        0.0175
      5 C         143.2298  144.7943  163.7206 C.3     1  UNL1        0.0175
      6 C         143.3149  143.6267  164.6584 C.3     1  UNL1        0.0614
      7 C         143.0995  142.4783  165.6144 C.3     1  UNL1        0.0595
      8 N         141.9223  143.2810  165.0957 N.3     1  UNL1       -0.2709
      9 O         141.2777  141.1455  166.9009 O.3     1  UNL1       -0.4791
     10 C         139.5467  138.3144  164.7242 C.ar    1  UNL1        0.0561
     11 C         138.3665  137.9761  165.5860 C.ar    1  UNL1        0.0047
     12 C         138.1567  138.6942  166.8860 C.ar    1  UNL1        0.0033
     13 C         139.1271  139.7507  167.3243 C.ar    1  UNL1        0.0369
     14 C         140.3073  140.0890  166.4626 C.ar    1  UNL1        0.1385
     15 C         140.5171  139.3709  165.1626 C.ar    1  UNL1        0.0414
     16 N         138.6780  137.6018  162.3816 N.am    1  UNL1       -0.3253
     17 C         139.7565  137.5962  163.4242 C.2     1  UNL1        0.2428
     18 O         141.0449  136.8724  163.1665 O.2     1  UNL1       -0.2704
     19 H         138.8157  137.1305  161.5284 H       1  UNL1        0.1453
     20 H         137.8324  138.0769  162.5507 H       1  UNL1        0.1453
     21 C         141.5421  142.1755  166.0355 C.3     1  UNL1        0.1056
     22 C         141.6828  142.3683  167.5164 C.ar    1  UNL1        0.0234
     23 C         140.6755  143.0138  168.4211 C.ar    1  UNL1        0.0041
     24 C         141.2257  142.9939  169.8164 C.ar    1  UNL1        0.0072
     25 C         142.5731  142.3362  169.7740 C.ar    1  UNL1        0.0352
     26 S         142.8556  141.9496  168.3525 S.2     1  UNL1       -0.0894
@<TRIPOS>BOND
     1    16    17   am
     2    17    18    2
     3    17    10    1
     4    10    11   ar
     5    11    12   ar
     6    12    13   ar
     7    13    14   ar
     8    14     9    1
     9     1     9    1
    10     1     2    1
    11     3     2    1
    12     3     4    1
    13     4     5    1
    14     6     5    1
    15     6     7    1
    16     6     8    1
    17     8    21    1
    18    21    22    1
    19    22    23   ar
    20    23    24   ar
    21    24    25   ar
    22    25    26   ar
    23    14    15   ar
    24    15    10   ar
    25     7     1    1
    26    26    22   ar
    27     8     3    1
    28    16    19    1
    29    16    20    1
@<TRIPOS>MOLECULE
*****
 26 29 0 0 0
SMALL
GASTEIGER

@<TRIPOS>ATOM
      1 C         140.9905  142.6421  164.3476 C.3     1  UNL1        0.1686
      2 C         140.2683  141.7022  163.4284 C.3     1  UNL1        0.0595
      3 C         138.9000  142.0514  162.9226 C.3     1  UNL1        0.0614
      4 C         137.6123  142.7811  162.6793 C.3     1  UNL1        0.0175
      5 C         137.6563  144.0680  163.4487 C.3     1  UNL1        0.0175
      6 C         138.9712  144.1336  164.1675 C.3     1  UNL1        0.0614
      7 C         140.3444  143.9312  164.7610 C.3     1  UNL1        0.0595
      8 N         139.7399  142.8873  163.8424 N.3     1  UNL1       -0.2709
      9 O         142.3589  142.2929  164.8535 O.3     1  UNL1       -0.4791
     10 C         143.0384  141.7868  168.7305 C.ar    1  UNL1        0.0561
     11 C         142.8362  140.3064  168.8629 C.ar    1  UNL1        0.0047
     12 C         142.4749  139.4882  167.6587 C.ar    1  UNL1        0.0033
     13 C         142.3158  140.1504  166.3223 C.ar    1  UNL1        0.0369
     14 C         142.5180  141.6307  166.1900 C.ar    1  UNL1        0.1385
     15 C         142.8793  142.4490  167.3940 C.ar    1  UNL1        0.0414
     16 N         144.8406  142.8725  170.2549 N.am    1  UNL1       -0.3253
     17 C         143.3998  142.6050  169.9347 C.2     1  UNL1        0.2428
     18 O         142.3203  143.1557  170.8187 O.2     1  UNL1       -0.2704
     19 H         145.0778  143.4095  171.0452 H       1  UNL1        0.1453
     20 H         145.5491  142.5110  169.6747 H       1  UNL1        0.1453
     21 C         141.1082  142.5381  164.3482 C.3     1  UNL1        0.1056
     22 C         142.3184  143.1920  163.7500 C.ar    1  UNL1        0.0234
     23 C         142.7824  144.5943  164.0108 C.ar    1  UNL1        0.0041
     24 C         144.0279  144.8273  163.2080 C.ar    1  UNL1        0.0072
     25 C         144.3336  143.5690  162.4510 C.ar    1  UNL1        0.0352
     26 S         143.2771  142.5583  162.7860 S.2     1  UNL1       -0.0894
@<TRIPOS>BOND
     1    16    17   am
     2    17    18    2
     3    17    10    1
     4    10    11   ar
     5    11    12   ar
     6    12    13   ar
     7    13    14   ar
     8    14     9    1
     9     1     9    1
    10     1     2    1
    11     3     2    1
    12     3     4    1
    13     4     5    1
    14     6     5    1
    15     6     7    1
    16     6     8    1
    17     8    21    1
    18    21    22    1
    19    22    23   ar
    20    23    24   ar
    21    24    25   ar
    22    25    26   ar
    23    14    15   ar
    24    15    10   ar
    25     7     1    1
    26    26    22   ar
    27     8     3    1
    28    16    19    1
    29    16    20    1
@<TRIPOS>MOLECULE
*****
 26 29 0 0 0
SMALL
GASTEIGER

@<TRIPOS>ATOM
      1 C         140.0364  141.4966  164.8947 C.3     1  UNL1        0.1686
      2 C         140.8095  142.2389  163.8453 C.3     1  UNL1        0.0595
      3 C         140.1040  143.1949  162.9297 C.3     1  UNL1        0.0614
      4 C         139.0313  144.0098  162.2701 C.3     1  UNL1        0.0175
      5 C         137.7313  143.7047  162.9533 C.3     1  UNL1        0.0175
      6 C         138.0005  142.7012  164.0351 C.3     1  UNL1        0.0614
      7 C         138.5577  141.7104  165.0286 C.3     1  UNL1        0.0595
      8 N         139.4669  142.3861  164.0206 N.3     1  UNL1       -0.2709
      9 O         140.7419  140.5405  165.8103 O.3     1  UNL1       -0.4791
     10 C         141.2809  141.2604  169.6757 C.ar    1  UNL1        0.0561
     11 C         142.5682  142.0296  169.6440 C.ar    1  UNL1        0.0047
     12 C         143.2468  142.3024  168.3344 C.ar    1  UNL1        0.0033
     13 C         142.6380  141.8061  167.0565 C.ar    1  UNL1        0.0369
     14 C         141.3507  141.0369  167.0882 C.ar    1  UNL1        0.1385
     15 C         140.6721  140.7640  168.3978 C.ar    1  UNL1        0.0414
     16 N         139.9719  139.6503  171.2391 N.am    1  UNL1       -0.3253
     17 C         140.6023  140.9875  170.9853 C.2     1  UNL1        0.2428
     18 O         140.5542  142.0519  172.0412 O.2     1  UNL1       -0.2704
     19 H         139.5265  139.4712  172.0986 H       1  UNL1        0.1453
     20 H         140.0034  138.9517  170.5461 H       1  UNL1        0.1453
     21 C         140.1725  141.4300  164.9361 C.3     1  UNL1        0.1056
     22 C         139.9869  139.9515  164.7641 C.ar    1  UNL1        0.0234
     23 C         138.9174  139.1168  165.4038 C.ar    1  UNL1        0.0041
     24 C         139.1078  137.6976  164.9572 C.ar    1  UNL1        0.0072
     25 C         140.2950  137.6552  164.0414 C.ar    1  UNL1        0.0352
     26 S         140.8383  139.0482  163.9221 S.2     1  UNL1       -0.0894
@<TRIPOS>BOND
     1    16    17   am
     2    17    18    2
     3    17    10    1
     4    10    11   ar
     5    11    12   ar
     6    12    13   ar
     7    13    14   ar
     8    14     9    1
     9     1     9    1
    10     1     2    1
    11     3     2    1
    12     3     4    1
    13     4     5    1
    14     6     5    1
    15     6     7    1
    16     6     8    1
    17     8    21    1
    18    21    22    1
    19    22    23   ar
    20    23    24   ar
    21    24    25   ar
    22    25    26   ar
    23    14    15   ar
    24    15    10   ar
    25     7     1    1
    26    26    22   ar
    27     8     3    1
    28    16    19    1
    29    16    20    1
@<TRIPOS>MOLECULE
*****
 26 29 0 0 0
SMALL
GASTEIGER

@<TRIPOS>ATOM
      1 C         139.6006  141.9244  164.9617 C.3     1  UNL1        0.1686
      2 C         140.5931  142.8442  164.3146 C.3     1  UNL1        0.0595
      3 C         140.1218  143.9166  163.3777 C.3     1  UNL1        0.0614
      4 C         139.2354  144.7997  162.5504 C.3     1  UNL1        0.0175
      5 C         137.8172  144.3567  162.7567 C.3     1  UNL1        0.0175
      6 C         137.8272  143.1999  163.7115 C.3     1  UNL1        0.0614
      7 C         138.1367  142.0770  164.6719 C.3     1  UNL1        0.0595
      8 N         139.2515  142.9279  164.0953 N.3     1  UNL1       -0.2709
      9 O         140.0718  140.8519  165.8987 O.3     1  UNL1       -0.4791
     10 C         140.4424  142.4966  169.4913 C.ar    1  UNL1        0.0561
     11 C         139.7752  141.4611  170.3473 C.ar    1  UNL1        0.0047
     12 C         139.2069  140.2226  169.7204 C.ar    1  UNL1        0.0033
     13 C         139.3058  140.0195  168.2375 C.ar    1  UNL1        0.0369
     14 C         139.9730  141.0550  167.3816 C.ar    1  UNL1        0.1385
     15 C         140.5413  142.2935  168.0084 C.ar    1  UNL1        0.0414
     16 N         142.4412  143.7589  170.5691 N.am    1  UNL1       -0.3253
     17 C         141.0107  143.7351  170.1183 C.2     1  UNL1        0.2428
     18 O         140.1485  144.9500  170.2944 O.2     1  UNL1       -0.2704
     19 H         142.8142  144.5718  170.9806 H       1  UNL1        0.1453
     20 H         143.0070  142.9616  170.4535 H       1  UNL1        0.1453
     21 C         139.7228  141.8555  165.0322 C.3     1  UNL1        0.1056
     22 C         139.7263  140.4220  164.5904 C.ar    1  UNL1        0.0234
     23 C         138.5424  139.5011  164.5755 C.ar    1  UNL1        0.0041
     24 C         138.9987  138.1677  164.0619 C.ar    1  UNL1        0.0072
     25 C         140.4647  138.2645  163.7594 C.ar    1  UNL1        0.0352
     26 S         140.9143  139.6577  164.0860 S.2     1  UNL1       -0.0894
@<TRIPOS>BOND
     1    16    17   am
     2    17    18    2
     3    17    10    1
     4    10    11   ar
     5    11    12   ar
     6    12    13   ar
     7    13    14   ar
     8    14     9    1
     9     1     9    1
    10     1     2    1
    11     3     2    1
    12     3     4    1
    13     4     5    1
    14     6     5    1
    15     6     7    1
    16     6     8    1
    17     8    21    1
    18    21    22    1
    19    22    23   ar
    20    23    24   ar
    21    24    25   ar
    22    25    26   ar
    23    14    15   ar
    24    15    10   ar
    25     7     1    1
    26    26    22   ar
    27     8     3    1
    28    16    19    1
    29    16    20    1
