@<TRIPOS>MOLECULE
*****
 41 45 0 0 0
SMALL
GASTEIGER

@<TRIPOS>ATOM
      1 C         138.5959  140.3620  158.5562 C.2     1  UNL1        0.4052
      2 O         137.2697  140.5627  157.8848 O.2     1  UNL1       -0.2262
      3 N         138.6585  139.7567  159.9272 N.am    1  UNL1       -0.2460
      4 C         139.9050  139.4962  160.7199 C.3     1  UNL1        0.0968
      5 C         139.5024  138.8840  162.0289 C.3     1  UNL1        0.0234
      6 C         138.8090  138.3009  163.2243 C.3     1  UNL1        0.0231
      7 C         138.0072  138.7663  162.0451 C.3     1  UNL1        0.0234
      8 C         137.4856  139.3056  160.7462 C.3     1  UNL1        0.0968
      9 O         139.8596  140.7667  157.8566 O.3     1  UNL1       -0.4295
     10 C         140.3359  142.1872  157.9305 C.3     1  UNL1        0.2367
     11 C         142.6755  142.8252  161.0721 C.ar    1  UNL1        0.0685
     12 C         142.1636  142.2723  159.7750 C.ar    1  UNL1        0.0096
     13 C         140.8477  142.7401  159.2276 C.ar    1  UNL1        0.0222
     14 C         140.0438  143.7607  159.9771 C.ar    1  UNL1        0.0058
     15 C         140.5556  144.3136  161.2742 C.ar    1  UNL1        0.0763
     16 C         141.8715  143.8459  161.8217 C.ar    1  UNL1        0.0167
     17 N         145.3072  141.8897  162.1670 N.1     1  UNL1       -0.1908
     18 C         143.9913  142.3574  161.6195 C.1     1  UNL1        0.1004
     19 C         139.7516  145.3343  162.0238 C.2     1  UNL1        0.3466
     20 O         139.2032  146.5317  161.3059 O.2     1  UNL1       -0.2447
     21 O         139.4959  145.1575  163.4912 O.3     1  UNL1       -0.3701
     22 C         138.4930  144.1459  163.9612 C.3     1  UNL1        0.5774
     23 F         137.4901  143.1343  164.4312 F       1  UNL1       -0.1328
     24 F         139.4623  143.6684  165.0017 F       1  UNL1       -0.1328
     25 F         137.5238  144.6234  162.9207 F       1  UNL1       -0.1328
     26 C         138.8716  137.6956  164.5953 C.3     1  UNL1        0.0910
     27 N         139.1981  138.5551  165.7805 N.am    1  UNL1       -0.2888
     28 C         140.6006  139.0446  165.9884 C.2     1  UNL1        0.3043
     29 O         141.6768  138.6745  165.0112 O.2     1  UNL1       -0.2526
     30 N         140.9271  139.9041  167.1736 N.am    1  UNL1       -0.2565
     31 C         142.3297  140.3936  167.3816 C.3     1  UNL1        0.1003
     32 C         142.6561  141.2530  168.5667 C.3     1  UNL1        0.0557
     33 C         141.5800  141.6231  169.5440 C.ar    1  UNL1        0.0700
     34 C         141.6018  142.4495  170.7957 C.ar    1  UNL1        0.2564
     35 O         142.8020  143.1344  171.3792 O.3     1  UNL1       -0.4902
     36 N         140.2127  142.4708  171.3613 N.ar    1  UNL1       -0.0397
     37 O         139.3324  141.6576  170.4592 O.2     1  UNL1       -0.3535
     38 C         140.1774  141.1337  169.3361 C.ar    1  UNL1        0.1736
     39 C         139.8510  140.2742  168.1509 C.3     1  UNL1        0.1620
     40 H         138.4918  138.7980  166.4219 H       1  UNL1        0.1510
     41 H         143.6340  143.0649  170.9539 H       1  UNL1        0.2938
@<TRIPOS>BOND
     1    17    18    3
     2    18    11    1
     3    11    12   ar
     4    12    13   ar
     5    13    10    1
     6    10     9    1
     7     9     1    1
     8     1     2    2
     9     1     3   am
    10     3     4    1
    11     5     4    1
    12     5     6    1
    13     6    26    1
    14    26    27    1
    15    27    28   am
    16    28    29    2
    17    28    30   am
    18    30    31    1
    19    31    32    1
    20    32    33    1
    21    33    34   ar
    22    34    35    1
    23    34    36   ar
    24    36    37   ar
    25    37    38   ar
    26    38    39    1
    27     6     7    1
    28     7     8    1
    29    13    14   ar
    30    14    15   ar
    31    15    19    1
    32    19    20    2
    33    19    21    1
    34    21    22    1
    35    22    23    1
    36    22    24    1
    37    22    25    1
    38    15    16   ar
    39    16    11   ar
    40     8     3    1
    41     7     5    1
    42    39    30    1
    43    38    33   ar
    44    27    40    1
    45    35    41    1
@<TRIPOS>MOLECULE
*****
 41 45 0 0 0
SMALL
GASTEIGER

@<TRIPOS>ATOM
      1 C         139.6730  140.0199  168.9760 C.2     1  UNL1        0.4052
      2 O         138.5347  140.0756  169.9513 O.2     1  UNL1       -0.2262
      3 N         139.4504  139.4824  167.5934 N.am    1  UNL1       -0.2460
      4 C         140.4869  139.3655  166.5155 C.3     1  UNL1        0.0968
      5 C         139.8293  138.7782  165.3019 C.3     1  UNL1        0.0234
      6 C         138.9152  138.1897  164.2685 C.3     1  UNL1        0.0231
      7 C         138.3865  138.5322  165.6298 C.3     1  UNL1        0.0234
      8 C         138.1523  138.9674  167.0461 C.3     1  UNL1        0.0968
      9 O         141.0339  140.5017  169.3833 O.3     1  UNL1       -0.4295
     10 C         141.4665  141.8983  169.0476 C.3     1  UNL1        0.2367
     11 C         142.9397  142.5598  165.4223 C.ar    1  UNL1        0.0685
     12 C         142.8425  142.1289  166.8558 C.ar    1  UNL1        0.0096
     13 C         141.5638  142.3291  167.6141 C.ar    1  UNL1        0.0222
     14 C         140.3824  142.9602  166.9389 C.ar    1  UNL1        0.0058
     15 C         140.4796  143.3911  165.5054 C.ar    1  UNL1        0.0763
     16 C         141.7582  143.1909  164.7471 C.ar    1  UNL1        0.0167
     17 N         145.4969  142.1593  163.9058 N.1     1  UNL1       -0.1908
     18 C         144.2183  142.3596  164.6641 C.1     1  UNL1        0.1004
     19 C         139.2981  144.0222  164.8302 C.2     1  UNL1        0.3466
     20 O         138.6103  145.1950  165.4637 O.2     1  UNL1       -0.2447
     21 O         138.8044  143.4805  163.5214 O.3     1  UNL1       -0.3701
     22 C         138.0647  142.1763  163.4808 C.3     1  UNL1        0.5774
     23 F         137.3249  140.8720  163.4401 F       1  UNL1       -0.1328
     24 F         137.2756  142.5862  164.6888 F       1  UNL1       -0.1328
     25 F         138.8538  141.7664  162.2728 F       1  UNL1       -0.1328
     26 C         138.6926  137.6522  162.8859 C.3     1  UNL1        0.0910
     27 N         139.6068  138.0570  161.7677 N.am    1  UNL1       -0.2888
     28 C         139.0858  138.8977  160.6400 C.2     1  UNL1        0.3043
     29 O         137.6506  139.3337  160.6305 O.2     1  UNL1       -0.2526
     30 N         140.0000  139.3025  159.5217 N.am    1  UNL1       -0.2565
     31 C         139.4790  140.1432  158.3941 C.3     1  UNL1        0.1003
     32 C         140.3932  140.5479  157.2759 C.3     1  UNL1        0.0557
     33 C         141.8284  140.1119  157.2853 C.ar    1  UNL1        0.0700
     34 C         142.9574  140.3546  156.3280 C.ar    1  UNL1        0.2564
     35 O         142.8811  141.1486  155.0577 O.3     1  UNL1       -0.4902
     36 N         144.1762  139.6638  156.8641 N.ar    1  UNL1       -0.0397
     37 O         143.8004  138.9943  158.1527 O.2     1  UNL1       -0.3535
     38 C         142.3494  139.2712  158.4130 C.ar    1  UNL1        0.1736
     39 C         141.4352  138.8665  159.5312 C.3     1  UNL1        0.1620
     40 H         140.5488  137.7708  161.7739 H       1  UNL1        0.1510
     41 H         142.0722  141.5464  154.8018 H       1  UNL1        0.2938
@<TRIPOS>BOND
     1    17    18    3
     2    18    11    1
     3    11    12   ar
     4    12    13   ar
     5    13    10    1
     6    10     9    1
     7     9     1    1
     8     1     2    2
     9     1     3   am
    10     3     4    1
    11     5     4    1
    12     5     6    1
    13     6    26    1
    14    26    27    1
    15    27    28   am
    16    28    29    2
    17    28    30   am
    18    30    31    1
    19    31    32    1
    20    32    33    1
    21    33    34   ar
    22    34    35    1
    23    34    36   ar
    24    36    37   ar
    25    37    38   ar
    26    38    39    1
    27     6     7    1
    28     7     8    1
    29    13    14   ar
    30    14    15   ar
    31    15    19    1
    32    19    20    2
    33    19    21    1
    34    21    22    1
    35    22    23    1
    36    22    24    1
    37    22    25    1
    38    15    16   ar
    39    16    11   ar
    40     8     3    1
    41     7     5    1
    42    39    30    1
    43    38    33   ar
    44    27    40    1
    45    35    41    1
@<TRIPOS>MOLECULE
*****
 41 45 0 0 0
SMALL
GASTEIGER

@<TRIPOS>ATOM
      1 C         139.6640  139.9159  168.6519 C.2     1  UNL1        0.4052
      2 O         138.5456  139.9200  169.6516 O.2     1  UNL1       -0.2262
      3 N         139.4113  139.4590  167.2457 N.am    1  UNL1       -0.2460
      4 C         140.4255  139.4000  166.1421 C.3     1  UNL1        0.0968
      5 C         139.7410  138.8855  164.9105 C.3     1  UNL1        0.0234
      6 C         138.8036  138.3603  163.8639 C.3     1  UNL1        0.0231
      7 C         138.3038  138.6265  165.2530 C.3     1  UNL1        0.0234
      8 C         138.1000  138.9809  166.6961 C.3     1  UNL1        0.0968
      9 O         141.0350  140.3686  169.0584 O.3     1  UNL1       -0.4295
     10 C         141.4584  141.7874  168.8178 C.3     1  UNL1        0.2367
     11 C         142.5957  142.7759  165.1463 C.ar    1  UNL1        0.0685
     12 C         142.6250  142.2097  166.5351 C.ar    1  UNL1        0.0096
     13 C         141.4291  142.3536  167.4291 C.ar    1  UNL1        0.0222
     14 C         140.2039  143.0635  166.9343 C.ar    1  UNL1        0.0058
     15 C         140.1746  143.6297  165.5455 C.ar    1  UNL1        0.0763
     16 C         141.3704  143.4859  164.6516 C.ar    1  UNL1        0.0167
     17 N         144.9874  142.4882  163.3584 N.1     1  UNL1       -0.1908
     18 C         143.7915  142.6320  164.2524 C.1     1  UNL1        0.1004
     19 C         138.9493  144.3397  165.0508 C.2     1  UNL1        0.3466
     20 O         138.2772  145.3659  165.9140 O.2     1  UNL1       -0.2447
     21 O         138.3962  144.0235  163.6928 O.3     1  UNL1       -0.3701
     22 C         137.7993  142.6743  163.4217 C.3     1  UNL1        0.5774
     23 F         137.2024  141.3251  163.1506 F       1  UNL1       -0.1328
     24 F         138.3068  142.7333  162.0113 F       1  UNL1       -0.1328
     25 F         137.2919  142.6154  164.8320 F       1  UNL1       -0.1328
     26 C         138.5509  137.9035  162.4578 C.3     1  UNL1        0.0910
     27 N         138.4648  138.9078  161.3469 N.am    1  UNL1       -0.2888
     28 C         139.6653  139.7315  160.9858 C.2     1  UNL1        0.3043
     29 O         140.9518  139.5509  161.7356 O.2     1  UNL1       -0.2526
     30 N         139.5792  140.7358  159.8749 N.am    1  UNL1       -0.2565
     31 C         140.7796  141.5595  159.5138 C.3     1  UNL1        0.1003
     32 C         140.6935  142.5638  158.4030 C.3     1  UNL1        0.0557
     33 C         139.4069  142.7444  157.6532 C.ar    1  UNL1        0.0700
     34 C         139.0242  143.6496  156.5200 C.ar    1  UNL1        0.2564
     35 O         139.9210  144.6443  155.8446 O.3     1  UNL1       -0.4902
     36 N         137.5872  143.3852  156.1807 N.ar    1  UNL1       -0.0397
     37 O         137.0818  142.3167  157.1042 O.2     1  UNL1       -0.3535
     38 C         138.2065  141.9207  158.0143 C.ar    1  UNL1        0.1736
     39 C         138.2926  140.9164  159.1251 C.3     1  UNL1        0.1620
     40 H         137.6204  139.0263  160.8548 H       1  UNL1        0.1510
     41 H         140.8096  144.7408  156.1260 H       1  UNL1        0.2938
@<TRIPOS>BOND
     1    17    18    3
     2    18    11    1
     3    11    12   ar
     4    12    13   ar
     5    13    10    1
     6    10     9    1
     7     9     1    1
     8     1     2    2
     9     1     3   am
    10     3     4    1
    11     5     4    1
    12     5     6    1
    13     6    26    1
    14    26    27    1
    15    27    28   am
    16    28    29    2
    17    28    30   am
    18    30    31    1
    19    31    32    1
    20    32    33    1
    21    33    34   ar
    22    34    35    1
    23    34    36   ar
    24    36    37   ar
    25    37    38   ar
    26    38    39    1
    27     6     7    1
    28     7     8    1
    29    13    14   ar
    30    14    15   ar
    31    15    19    1
    32    19    20    2
    33    19    21    1
    34    21    22    1
    35    22    23    1
    36    22    24    1
    37    22    25    1
    38    15    16   ar
    39    16    11   ar
    40     8     3    1
    41     7     5    1
    42    39    30    1
    43    38    33   ar
    44    27    40    1
    45    35    41    1
@<TRIPOS>MOLECULE
*****
 41 45 0 0 0
SMALL
GASTEIGER

@<TRIPOS>ATOM
      1 C         141.5685  144.5605  158.6114 C.2     1  UNL1        0.4052
      2 O         142.1750  145.8549  158.1567 O.2     1  UNL1       -0.2262
      3 N         140.8058  144.5020  159.9017 N.am    1  UNL1       -0.2460
      4 C         140.1473  143.2857  160.4821 C.3     1  UNL1        0.0968
      5 C         139.5023  143.6815  161.7773 C.3     1  UNL1        0.0234
      6 C         138.9718  144.3612  163.0047 C.3     1  UNL1        0.0231
      7 C         139.7622  145.1423  161.9973 C.3     1  UNL1        0.0234
      8 C         140.5679  145.6494  160.8381 C.3     1  UNL1        0.0968
      9 O         141.7247  143.3247  157.7757 O.3     1  UNL1       -0.4295
     10 C         142.8463  142.3682  158.0537 C.3     1  UNL1        0.2367
     11 C         142.3772  139.9386  161.1565 C.ar    1  UNL1        0.0685
     12 C         142.2243  140.5384  159.7902 C.ar    1  UNL1        0.0096
     13 C         142.9992  141.7684  159.4200 C.ar    1  UNL1        0.0222
     14 C         143.9268  142.3984  160.4162 C.ar    1  UNL1        0.0058
     15 C         144.0797  141.7986  161.7825 C.ar    1  UNL1        0.0763
     16 C         143.3049  140.5688  162.1527 C.ar    1  UNL1        0.0167
     17 N         140.8277  137.4788  161.8968 N.1     1  UNL1       -0.1908
     18 C         141.6025  138.7087  161.5267 C.1     1  UNL1        0.1004
     19 C         145.0074  142.4288  162.7787 C.2     1  UNL1        0.3466
     20 O         146.1870  141.6599  163.2958 O.2     1  UNL1       -0.2447
     21 O         144.7555  143.8277  163.2577 O.3     1  UNL1       -0.3701
     22 C         143.4227  144.1919  163.8415 C.3     1  UNL1        0.5774
     23 F         142.0898  144.5562  164.4254 F       1  UNL1       -0.1328
     24 F         143.7617  143.4319  165.0895 F       1  UNL1       -0.1328
     25 F         143.0838  144.9520  162.5936 F       1  UNL1       -0.1328
     26 C         138.2091  144.3026  164.2950 C.3     1  UNL1        0.0910
     27 N         138.9031  143.8869  165.5583 N.am    1  UNL1       -0.2888
     28 C         139.4748  142.5056  165.6802 C.2     1  UNL1        0.3043
     29 O         139.3526  141.5398  164.5390 O.2     1  UNL1       -0.2526
     30 N         140.1688  142.0899  166.9434 N.am    1  UNL1       -0.2565
     31 C         140.7405  140.7085  167.0654 C.3     1  UNL1        0.1003
     32 C         141.4344  140.2929  168.3285 C.3     1  UNL1        0.0557
     33 C         141.5566  141.2586  169.4698 C.ar    1  UNL1        0.0700
     34 C         142.1815  141.1337  170.8278 C.ar    1  UNL1        0.2564
     35 O         142.8709  139.9181  171.3727 O.3     1  UNL1       -0.4902
     36 N         141.9959  142.4379  171.5451 N.ar    1  UNL1       -0.0397
     37 O         141.2564  143.3688  170.6304 O.2     1  UNL1       -0.3535
     38 C         140.9849  142.6400  169.3479 C.ar    1  UNL1        0.1736
     39 C         140.2910  143.0556  168.0847 C.3     1  UNL1        0.1620
     40 H         138.9833  144.5208  166.3073 H       1  UNL1        0.1510
     41 H         142.9393  139.1441  170.8491 H       1  UNL1        0.2938
@<TRIPOS>BOND
     1    17    18    3
     2    18    11    1
     3    11    12   ar
     4    12    13   ar
     5    13    10    1
     6    10     9    1
     7     9     1    1
     8     1     2    2
     9     1     3   am
    10     3     4    1
    11     5     4    1
    12     5     6    1
    13     6    26    1
    14    26    27    1
    15    27    28   am
    16    28    29    2
    17    28    30   am
    18    30    31    1
    19    31    32    1
    20    32    33    1
    21    33    34   ar
    22    34    35    1
    23    34    36   ar
    24    36    37   ar
    25    37    38   ar
    26    38    39    1
    27     6     7    1
    28     7     8    1
    29    13    14   ar
    30    14    15   ar
    31    15    19    1
    32    19    20    2
    33    19    21    1
    34    21    22    1
    35    22    23    1
    36    22    24    1
    37    22    25    1
    38    15    16   ar
    39    16    11   ar
    40     8     3    1
    41     7     5    1
    42    39    30    1
    43    38    33   ar
    44    27    40    1
    45    35    41    1
@<TRIPOS>MOLECULE
*****
 41 45 0 0 0
SMALL
GASTEIGER

@<TRIPOS>ATOM
      1 C         144.9127  140.8161  163.5194 C.2     1  UNL1        0.4052
      2 O         145.1505  139.8865  164.6724 O.2     1  UNL1       -0.2262
      3 N         144.3987  140.2790  162.2167 N.am    1  UNL1       -0.2460
      4 C         144.1145  141.0826  160.9824 C.3     1  UNL1        0.0968
      5 C         143.6187  140.1442  159.9223 C.3     1  UNL1        0.0234
      6 C         143.1625  138.9873  159.0836 C.3     1  UNL1        0.0231
      7 C         143.5966  138.7607  160.5014 C.3     1  UNL1        0.0234
      8 C         144.0786  138.8440  161.9194 C.3     1  UNL1        0.0968
      9 O         145.1889  142.2828  163.6693 O.3     1  UNL1       -0.4295
     10 C         144.6056  143.0416  164.8243 C.3     1  UNL1        0.2367
     11 C         140.7364  143.7711  164.3262 C.ar    1  UNL1        0.0685
     12 C         142.2194  143.7716  164.1008 C.ar    1  UNL1        0.0096
     13 C         143.1226  143.0411  165.0498 C.ar    1  UNL1        0.0222
     14 C         142.5428  142.3100  166.2242 C.ar    1  UNL1        0.0058
     15 C         141.0598  142.3094  166.4497 C.ar    1  UNL1        0.0763
     16 C         140.1567  143.0399  165.5007 C.ar    1  UNL1        0.0167
     17 N         138.9301  145.2321  162.4283 N.1     1  UNL1       -0.1908
     18 C         139.8333  144.5016  163.3773 C.1     1  UNL1        0.1004
     19 C         140.4801  141.5782  167.6242 C.2     1  UNL1        0.3466
     20 O         140.2032  140.1070  167.5295 O.2     1  UNL1       -0.2447
     21 O         140.1772  142.3182  168.8932 O.3     1  UNL1       -0.3701
     22 C         141.2720  143.0432  169.6182 C.3     1  UNL1        0.5774
     23 F         142.3669  143.7682  170.3433 F       1  UNL1       -0.1328
     24 F         140.4445  144.2943  169.6169 F       1  UNL1       -0.1328
     25 F         142.0995  141.7921  169.6195 F       1  UNL1       -0.1328
     26 C         142.6485  138.4502  157.7808 C.3     1  UNL1        0.0910
     27 N         143.0096  137.0601  157.3479 N.am    1  UNL1       -0.2888
     28 C         142.0397  136.2508  156.5390 C.2     1  UNL1        0.3043
     29 O         140.7088  136.8314  156.1631 O.2     1  UNL1       -0.2526
     30 N         142.4008  134.8607  156.1061 N.am    1  UNL1       -0.2565
     31 C         141.4309  134.0513  155.2973 C.3     1  UNL1        0.1003
     32 C         141.7920  132.6613  154.8644 C.3     1  UNL1        0.0557
     33 C         143.1230  132.0807  155.2404 C.ar    1  UNL1        0.0700
     34 C         143.7524  130.7484  154.9591 C.ar    1  UNL1        0.2564
     35 O         143.1318  129.6271  154.1797 O.3     1  UNL1       -0.4902
     36 N         145.1112  130.7344  155.5941 N.ar    1  UNL1       -0.0397
     37 O         145.3217  132.0580  156.2679 O.2     1  UNL1       -0.3535
     38 C         144.0929  132.8900  156.0492 C.ar    1  UNL1        0.1736
     39 C         143.7318  134.2800  156.4821 C.3     1  UNL1        0.1620
     40 H         143.8832  136.6790  157.5946 H       1  UNL1        0.1510
     41 H         142.2733  129.7269  153.8179 H       1  UNL1        0.2938
@<TRIPOS>BOND
     1    17    18    3
     2    18    11    1
     3    11    12   ar
     4    12    13   ar
     5    13    10    1
     6    10     9    1
     7     9     1    1
     8     1     2    2
     9     1     3   am
    10     3     4    1
    11     5     4    1
    12     5     6    1
    13     6    26    1
    14    26    27    1
    15    27    28   am
    16    28    29    2
    17    28    30   am
    18    30    31    1
    19    31    32    1
    20    32    33    1
    21    33    34   ar
    22    34    35    1
    23    34    36   ar
    24    36    37   ar
    25    37    38   ar
    26    38    39    1
    27     6     7    1
    28     7     8    1
    29    13    14   ar
    30    14    15   ar
    31    15    19    1
    32    19    20    2
    33    19    21    1
    34    21    22    1
    35    22    23    1
    36    22    24    1
    37    22    25    1
    38    15    16   ar
    39    16    11   ar
    40     8     3    1
    41     7     5    1
    42    39    30    1
    43    38    33   ar
    44    27    40    1
    45    35    41    1
@<TRIPOS>MOLECULE
*****
 41 45 0 0 0
SMALL
GASTEIGER

@<TRIPOS>ATOM
      1 C         138.9337  139.8691  158.6267 C.2     1  UNL1        0.4052
      2 O         137.6714  140.3723  157.9915 O.2     1  UNL1       -0.2262
      3 N         138.9083  139.3420  160.0308 N.am    1  UNL1       -0.2460
      4 C         140.0844  138.8083  160.7936 C.3     1  UNL1        0.0968
      5 C         139.6052  138.3924  162.1529 C.3     1  UNL1        0.0234
      6 C         138.8471  138.0742  163.4074 C.3     1  UNL1        0.0231
      7 C         138.1330  138.6690  162.2301 C.3     1  UNL1        0.0234
      8 C         137.7022  139.2559  160.9186 C.3     1  UNL1        0.0968
      9 O         140.2214  139.8932  157.8578 O.3     1  UNL1       -0.4295
     10 C         141.0471  141.1448  157.8167 C.3     1  UNL1        0.2367
     11 C         140.8693  143.8941  160.6732 C.ar    1  UNL1        0.0685
     12 C         140.5782  143.1457  159.4063 C.ar    1  UNL1        0.0096
     13 C         141.3382  141.8933  159.0836 C.ar    1  UNL1        0.0222
     14 C         142.3892  141.3895  160.0277 C.ar    1  UNL1        0.0058
     15 C         142.6803  142.1379  161.2947 C.ar    1  UNL1        0.0763
     16 C         141.9204  143.3902  161.6174 C.ar    1  UNL1        0.0167
     17 N         139.3495  146.3987  161.3187 N.1     1  UNL1       -0.1908
     18 C         140.1094  145.1464  160.9960 C.1     1  UNL1        0.1004
     19 C         143.7314  141.6340  162.2388 C.2     1  UNL1        0.3466
     20 O         145.0392  141.1293  161.7051 O.2     1  UNL1       -0.2447
     21 O         143.4746  141.6348  163.7167 O.3     1  UNL1       -0.3701
     22 C         144.2045  142.5989  164.6042 C.3     1  UNL1        0.5774
     23 F         144.9345  143.5630  165.4917 F       1  UNL1       -0.1328
     24 F         145.4422  141.7578  164.4998 F       1  UNL1       -0.1328
     25 F         142.9669  143.4399  164.7085 F       1  UNL1       -0.1328
     26 C         138.8216  137.5470  164.8115 C.3     1  UNL1        0.0910
     27 N         139.1850  138.4452  165.9566 N.am    1  UNL1       -0.2888
     28 C         140.5713  139.0092  166.0568 C.2     1  UNL1        0.3043
     29 O         141.5943  138.6749  165.0120 O.2     1  UNL1       -0.2526
     30 N         140.9346  139.9074  167.2020 N.am    1  UNL1       -0.2565
     31 C         142.3209  140.4713  167.3022 C.3     1  UNL1        0.1003
     32 C         142.6842  141.3695  168.4473 C.3     1  UNL1        0.0557
     33 C         141.6611  141.7038  169.4921 C.ar    1  UNL1        0.0700
     34 C         141.7273  142.5548  170.7256 C.ar    1  UNL1        0.2564
     35 O         142.9281  143.3111  171.2116 O.3     1  UNL1       -0.4902
     36 N         140.3819  142.5169  171.3876 N.ar    1  UNL1       -0.0397
     37 O         139.4842  141.6423  170.5633 O.2     1  UNL1       -0.3535
     38 C         140.2748  141.1399  169.3919 C.ar    1  UNL1        0.1736
     39 C         139.9116  140.2417  168.2468 C.3     1  UNL1        0.1620
     40 H         138.5135  138.6646  166.6424 H       1  UNL1        0.1510
     41 H         143.7309  143.2754  170.7297 H       1  UNL1        0.2938
@<TRIPOS>BOND
     1    17    18    3
     2    18    11    1
     3    11    12   ar
     4    12    13   ar
     5    13    10    1
     6    10     9    1
     7     9     1    1
     8     1     2    2
     9     1     3   am
    10     3     4    1
    11     5     4    1
    12     5     6    1
    13     6    26    1
    14    26    27    1
    15    27    28   am
    16    28    29    2
    17    28    30   am
    18    30    31    1
    19    31    32    1
    20    32    33    1
    21    33    34   ar
    22    34    35    1
    23    34    36   ar
    24    36    37   ar
    25    37    38   ar
    26    38    39    1
    27     6     7    1
    28     7     8    1
    29    13    14   ar
    30    14    15   ar
    31    15    19    1
    32    19    20    2
    33    19    21    1
    34    21    22    1
    35    22    23    1
    36    22    24    1
    37    22    25    1
    38    15    16   ar
    39    16    11   ar
    40     8     3    1
    41     7     5    1
    42    39    30    1
    43    38    33   ar
    44    27    40    1
    45    35    41    1
@<TRIPOS>MOLECULE
*****
 41 45 0 0 0
SMALL
GASTEIGER

@<TRIPOS>ATOM
      1 C         139.7730  140.3444  168.2450 C.2     1  UNL1        0.4052
      2 O         139.3709  141.0446  169.5092 O.2     1  UNL1       -0.2262
      3 N         140.9127  140.8724  167.4251 N.am    1  UNL1       -0.2460
      4 C         141.4258  140.2819  166.1453 C.3     1  UNL1        0.0968
      5 C         142.5697  141.1282  165.6703 C.3     1  UNL1        0.0234
      6 C         143.6536  142.1422  165.4533 C.3     1  UNL1        0.0231
      7 C         142.7634  142.2416  166.6566 C.3     1  UNL1        0.0234
      8 C         141.7394  142.0835  167.7411 C.3     1  UNL1        0.0968
      9 O         139.0354  139.1161  167.8008 O.3     1  UNL1       -0.4295
     10 C         137.9152  139.2313  166.8098 C.3     1  UNL1        0.2367
     11 C         138.2263  141.4526  163.5358 C.ar    1  UNL1        0.0685
     12 C         137.9373  141.0457  164.9504 C.ar    1  UNL1        0.0096
     13 C         138.2041  139.6382  165.3953 C.ar    1  UNL1        0.0222
     14 C         138.7598  138.6378  164.4257 C.ar    1  UNL1        0.0058
     15 C         139.0488  139.0447  163.0112 C.ar    1  UNL1        0.0763
     16 C         138.7820  140.4521  162.5662 C.ar    1  UNL1        0.0167
     17 N         137.6928  144.2674  162.6459 N.1     1  UNL1       -0.1908
     18 C         137.9595  142.8600  163.0909 C.1     1  UNL1        0.1004
     19 C         139.6045  138.0441  162.0415 C.2     1  UNL1        0.3466
     20 O         139.0356  137.9453  160.6572 O.2     1  UNL1       -0.2447
     21 O         140.7292  137.1424  162.4563 O.3     1  UNL1       -0.3701
     22 C         141.9115  137.7059  163.1874 C.3     1  UNL1        0.5774
     23 F         143.0940  138.2693  163.9185 F       1  UNL1       -0.1328
     24 F         141.5955  136.8366  164.3684 F       1  UNL1       -0.1328
     25 F         142.2275  138.5750  162.0065 F       1  UNL1       -0.1328
     26 C         144.7933  142.6702  164.6334 C.3     1  UNL1        0.0910
     27 N         144.7232  142.6262  163.1357 N.am    1  UNL1       -0.2888
     28 C         143.5700  143.2646  162.4197 C.2     1  UNL1        0.3043
     29 O         142.4868  143.9469  163.2015 O.2     1  UNL1       -0.2526
     30 N         143.5000  143.2207  160.9220 N.am    1  UNL1       -0.2565
     31 C         142.3468  143.8590  160.2060 C.3     1  UNL1        0.1003
     32 C         142.2768  143.8151  158.7083 C.3     1  UNL1        0.0557
     33 C         143.3601  143.1328  157.9266 C.ar    1  UNL1        0.0700
     34 C         143.5600  142.9314  156.4536 C.ar    1  UNL1        0.2564
     35 O         142.6440  143.4089  155.3661 O.3     1  UNL1       -0.4902
     36 N         144.8368  142.1685  156.2593 N.ar    1  UNL1       -0.0397
     37 O         145.4259  141.8985  157.6121 O.2     1  UNL1       -0.3535
     38 C         144.5133  142.4945  158.6425 C.ar    1  UNL1        0.1736
     39 C         144.5832  142.5384  160.1402 C.3     1  UNL1        0.1620
     40 H         145.4342  142.1785  162.6226 H       1  UNL1        0.1510
     41 H         141.8641  143.8805  155.5838 H       1  UNL1        0.2938
@<TRIPOS>BOND
     1    17    18    3
     2    18    11    1
     3    11    12   ar
     4    12    13   ar
     5    13    10    1
     6    10     9    1
     7     9     1    1
     8     1     2    2
     9     1     3   am
    10     3     4    1
    11     5     4    1
    12     5     6    1
    13     6    26    1
    14    26    27    1
    15    27    28   am
    16    28    29    2
    17    28    30   am
    18    30    31    1
    19    31    32    1
    20    32    33    1
    21    33    34   ar
    22    34    35    1
    23    34    36   ar
    24    36    37   ar
    25    37    38   ar
    26    38    39    1
    27     6     7    1
    28     7     8    1
    29    13    14   ar
    30    14    15   ar
    31    15    19    1
    32    19    20    2
    33    19    21    1
    34    21    22    1
    35    22    23    1
    36    22    24    1
    37    22    25    1
    38    15    16   ar
    39    16    11   ar
    40     8     3    1
    41     7     5    1
    42    39    30    1
    43    38    33   ar
    44    27    40    1
    45    35    41    1
@<TRIPOS>MOLECULE
*****
 41 45 0 0 0
SMALL
GASTEIGER

@<TRIPOS>ATOM
      1 C         142.5244  139.6902  158.5409 C.2     1  UNL1        0.4052
      2 O         143.7243  138.9362  158.0489 O.2     1  UNL1       -0.2262
      3 N         141.8188  139.2458  159.7877 N.am    1  UNL1       -0.2460
      4 C         140.6127  139.8965  160.3977 C.3     1  UNL1        0.0968
      5 C         140.2439  139.1255  161.6305 C.3     1  UNL1        0.0234
      6 C         140.1217  138.1771  162.7862 C.3     1  UNL1        0.0231
      7 C         141.2219  137.9984  161.7823 C.3     1  UNL1        0.0234
      8 C         142.1952  138.0727  160.6434 C.3     1  UNL1        0.0968
      9 O         142.0303  140.8885  157.7860 O.3     1  UNL1       -0.4295
     10 C         142.6811  142.2244  157.9904 C.3     1  UNL1        0.2367
     11 C         141.3337  144.6250  160.8491 C.ar    1  UNL1        0.0685
     12 C         141.4585  143.9241  159.5288 C.ar    1  UNL1        0.0096
     13 C         142.5563  142.9253  159.3107 C.ar    1  UNL1        0.0222
     14 C         143.5291  142.6275  160.4128 C.ar    1  UNL1        0.0058
     15 C         143.4043  143.3284  161.7331 C.ar    1  UNL1        0.0763
     16 C         142.3067  144.3271  161.9513 C.ar    1  UNL1        0.0167
     17 N         139.1384  146.6224  161.2854 N.1     1  UNL1       -0.1908
     18 C         140.2361  145.6237  161.0673 C.1     1  UNL1        0.1004
     19 C         144.3773  143.0305  162.8353 C.2     1  UNL1        0.3466
     20 O         144.3934  143.8800  164.0714 O.2     1  UNL1       -0.2447
     21 O         145.3341  141.8831  162.7013 O.3     1  UNL1       -0.3701
     22 C         145.1710  140.6661  163.5628 C.3     1  UNL1        0.5774
     23 F         145.0078  139.4490  164.4243 F       1  UNL1       -0.1328
     24 F         143.9781  140.2526  162.7527 F       1  UNL1       -0.1328
     25 F         146.3638  141.0795  164.3728 F       1  UNL1       -0.1328
     26 C         139.4161  137.7328  164.0329 C.3     1  UNL1        0.0910
     27 N         139.5767  138.5127  165.3042 N.am    1  UNL1       -0.2888
     28 C         140.9469  138.7736  165.8560 C.2     1  UNL1        0.3043
     29 O         142.1565  138.2545  165.1366 O.2     1  UNL1       -0.2526
     30 N         141.1076  139.5535  167.1272 N.am    1  UNL1       -0.2565
     31 C         142.4777  139.8144  167.6790 C.3     1  UNL1        0.1003
     32 C         142.6383  140.5942  168.9502 C.3     1  UNL1        0.0557
     33 C         141.4288  141.1133  169.6695 C.ar    1  UNL1        0.0700
     34 C         141.2763  141.9072  170.9331 C.ar    1  UNL1        0.2564
     35 O         142.3923  142.3870  171.8131 O.3     1  UNL1       -0.4902
     36 N         139.8118  142.1369  171.1622 N.ar    1  UNL1       -0.0397
     37 O         139.0592  141.4851  170.0403 O.2     1  UNL1       -0.3535
     38 C         140.0586  140.8524  169.1178 C.ar    1  UNL1        0.1736
     39 C         139.8980  140.0725  167.8466 C.3     1  UNL1        0.1620
     40 H         138.7829  138.8534  165.7764 H       1  UNL1        0.1510
     41 H         143.2815  142.1946  171.5888 H       1  UNL1        0.2938
@<TRIPOS>BOND
     1    17    18    3
     2    18    11    1
     3    11    12   ar
     4    12    13   ar
     5    13    10    1
     6    10     9    1
     7     9     1    1
     8     1     2    2
     9     1     3   am
    10     3     4    1
    11     5     4    1
    12     5     6    1
    13     6    26    1
    14    26    27    1
    15    27    28   am
    16    28    29    2
    17    28    30   am
    18    30    31    1
    19    31    32    1
    20    32    33    1
    21    33    34   ar
    22    34    35    1
    23    34    36   ar
    24    36    37   ar
    25    37    38   ar
    26    38    39    1
    27     6     7    1
    28     7     8    1
    29    13    14   ar
    30    14    15   ar
    31    15    19    1
    32    19    20    2
    33    19    21    1
    34    21    22    1
    35    22    23    1
    36    22    24    1
    37    22    25    1
    38    15    16   ar
    39    16    11   ar
    40     8     3    1
    41     7     5    1
    42    39    30    1
    43    38    33   ar
    44    27    40    1
    45    35    41    1
@<TRIPOS>MOLECULE
*****
 41 45 0 0 0
SMALL
GASTEIGER

@<TRIPOS>ATOM
      1 C         144.3468  139.6088  164.1291 C.2     1  UNL1        0.4052
      2 O         145.1401  140.8540  164.3945 O.2     1  UNL1       -0.2262
      3 N         143.9615  139.2501  162.7246 N.am    1  UNL1       -0.2460
      4 C         143.1739  138.0437  162.3072 C.3     1  UNL1        0.0968
      5 C         143.0217  138.0829  160.8154 C.3     1  UNL1        0.0234
      6 C         143.0346  138.3876  159.3467 C.3     1  UNL1        0.0231
      7 C         143.7151  139.3135  160.3109 C.3     1  UNL1        0.0234
      8 C         144.2959  140.0349  161.4908 C.3     1  UNL1        0.0968
      9 O         143.9390  138.7223  165.2684 O.3     1  UNL1       -0.4295
     10 C         143.4863  139.3270  166.5643 C.3     1  UNL1        0.2367
     11 C         139.6391  139.9568  165.8211 C.ar    1  UNL1        0.0685
     12 C         141.0876  139.6278  165.6125 C.ar    1  UNL1        0.0096
     13 C         142.0377  139.6560  166.7729 C.ar    1  UNL1        0.0222
     14 C         141.5393  140.0130  168.1419 C.ar    1  UNL1        0.0058
     15 C         140.0908  140.3419  168.3504 C.ar    1  UNL1        0.0763
     16 C         139.1406  140.3138  167.1901 C.ar    1  UNL1        0.0167
     17 N         137.7388  139.9006  163.5004 N.1     1  UNL1       -0.1908
     18 C         138.6890  139.9287  164.6607 C.1     1  UNL1        0.1004
     19 C         139.5923  140.6990  169.7195 C.2     1  UNL1        0.3466
     20 O         139.1380  139.6200  170.6572 O.2     1  UNL1       -0.2447
     21 O         139.5483  142.1350  170.1507 O.3     1  UNL1       -0.3701
     22 C         140.8048  142.9541  170.1599 C.3     1  UNL1        0.5774
     23 F         142.0614  143.7733  170.1691 F       1  UNL1       -0.1328
     24 F         141.4627  141.9349  171.0423 F       1  UNL1       -0.1328
     25 F         140.1469  143.9732  169.2775 F       1  UNL1       -0.1328
     26 C         142.6493  138.0289  157.9422 C.3     1  UNL1        0.0910
     27 N         142.9804  136.6712  157.3971 N.am    1  UNL1       -0.2888
     28 C         142.0335  135.9904  156.4538 C.2     1  UNL1        0.3043
     29 O         140.7554  136.6672  156.0556 O.2     1  UNL1       -0.2526
     30 N         142.3646  134.6327  155.9086 N.am    1  UNL1       -0.2565
     31 C         141.4177  133.9519  154.9654 C.3     1  UNL1        0.1003
     32 C         141.7488  132.5942  154.4203 C.3     1  UNL1        0.0557
     33 C         143.0268  131.9174  154.8185 C.ar    1  UNL1        0.0700
     34 C         143.6178  130.5899  154.4463 C.ar    1  UNL1        0.2564
     35 O         143.0043  129.5794  153.5229 O.3     1  UNL1       -0.4902
     36 N         144.9299  130.4503  155.1595 N.ar    1  UNL1       -0.0397
     37 O         145.1499  131.6915  155.9725 O.2     1  UNL1       -0.3535
     38 C         143.9737  132.5983  155.7617 C.ar    1  UNL1        0.1736
     39 C         143.6426  133.9559  156.3068 C.3     1  UNL1        0.1620
     40 H         143.8192  136.2270  157.6584 H       1  UNL1        0.1510
     41 H         142.1764  129.7543  153.1205 H       1  UNL1        0.2938
@<TRIPOS>BOND
     1    17    18    3
     2    18    11    1
     3    11    12   ar
     4    12    13   ar
     5    13    10    1
     6    10     9    1
     7     9     1    1
     8     1     2    2
     9     1     3   am
    10     3     4    1
    11     5     4    1
    12     5     6    1
    13     6    26    1
    14    26    27    1
    15    27    28   am
    16    28    29    2
    17    28    30   am
    18    30    31    1
    19    31    32    1
    20    32    33    1
    21    33    34   ar
    22    34    35    1
    23    34    36   ar
    24    36    37   ar
    25    37    38   ar
    26    38    39    1
    27     6     7    1
    28     7     8    1
    29    13    14   ar
    30    14    15   ar
    31    15    19    1
    32    19    20    2
    33    19    21    1
    34    21    22    1
    35    22    23    1
    36    22    24    1
    37    22    25    1
    38    15    16   ar
    39    16    11   ar
    40     8     3    1
    41     7     5    1
    42    39    30    1
    43    38    33   ar
    44    27    40    1
    45    35    41    1
