@<TRIPOS>MOLECULE
*****
 38 40 0 0 0
SMALL
GASTEIGER

@<TRIPOS>ATOM
      1 C         138.9962  142.5785  161.7709 C.2     1  UNL1        0.2485
      2 O         137.9740  143.6758  161.7394 O.2     1  UNL1       -0.2726
      3 N         140.0010  142.4575  160.6638 N.am    1  UNL1       -0.2823
      4 H         140.6718  141.7372  160.6845 H       1  UNL1        0.1549
      5 C         140.1924  141.8719  167.2213 C.ar    1  UNL1        0.1054
      6 C         140.3404  143.1306  166.4190 C.ar    1  UNL1        0.0181
      7 C         139.9713  143.1411  164.9651 C.ar    1  UNL1       -0.0011
      8 C         139.4543  141.8929  164.3136 C.ar    1  UNL1        0.0022
      9 C         139.3064  140.6342  165.1158 C.ar    1  UNL1       -0.0030
     10 C         139.6754  140.6237  166.5697 C.ar    1  UNL1        0.0155
     11 C         138.7741  139.5655  164.2077 C.3     1  UNL1        0.1206
     12 N         138.5931  140.1638  162.8442 N.am    1  UNL1       -0.2655
     13 C         138.0815  139.4491  161.6285 C.2     1  UNL1        0.2269
     14 C         137.6976  138.0017  161.7156 C.3     1  UNL1        0.0949
     15 O         137.9539  140.1819  160.3260 O.2     1  UNL1       -0.2748
     16 C         139.0135  141.6022  162.9096 C.3     1  UNL1        0.1750
     17 S         140.5615  141.8615  168.6751 S.O2    1  UNL1        0.0086
     18 O         140.3546  143.3458  168.7383 O.2     1  UNL1       -0.1686
     19 O         140.7684  140.3771  168.6119 O.2     1  UNL1       -0.1686
     20 C         142.2229  142.4649  170.5791 C.3     1  UNL1        0.0276
     21 C         140.9305  141.8510  170.1290 C.3     1  UNL1        0.1560
     22 C         139.9836  143.4338  159.5252 C.ar    1  UNL1        0.0503
     23 C         140.6811  144.7549  159.6593 C.ar    1  UNL1        0.0144
     24 C         140.6638  145.7312  158.5207 C.ar    1  UNL1       -0.0002
     25 C         139.9489  145.3865  157.2479 C.ar    1  UNL1        0.0182
     26 C         139.2514  144.0653  157.1137 C.ar    1  UNL1       -0.0002
     27 C         139.2688  143.0890  158.2524 C.ar    1  UNL1        0.0144
     28 C         139.9316  146.3628  156.1092 C.3     1  UNL1        0.2827
     29 O         139.3251  147.3997  157.0076 O.3     1  UNL1       -0.3692
     30 H         139.2049  147.0279  157.8954 H       1  UNL1        0.2112
     31 C         139.9142  147.3391  154.9706 C.3     1  UNL1        0.4311
     32 F         139.8969  148.3154  153.8320 F       1  UNL1       -0.1669
     33 F         138.4144  147.3192  154.9764 F       1  UNL1       -0.1669
     34 F         140.7920  147.4210  154.8853 F       1  UNL1       -0.1669
     35 C         140.5381  145.3259  155.2109 C.3     1  UNL1        0.4311
     36 F         141.1446  144.2890  154.3126 F       1  UNL1       -0.1669
     37 F         139.8173  145.1743  154.7189 F       1  UNL1       -0.1669
     38 F         141.9504  145.2024  155.7010 F       1  UNL1       -0.1669
@<TRIPOS>BOND
     1    20    21    1
     2    21    17    1
     3    17    18    2
     4    17    19    2
     5    17     5    1
     6     5     6   ar
     7     6     7   ar
     8     7     8   ar
     9     8     9   ar
    10     9    10   ar
    11     9    11    1
    12    11    12    1
    13    12    13   am
    14    13    14    1
    15    13    15    2
    16    12    16    1
    17    16     1    1
    18     1     2    2
    19     1     3   am
    20     3    22    1
    21    22    23   ar
    22    23    24   ar
    23    24    25   ar
    24    25    28    1
    25    28    29    1
    26    28    31    1
    27    31    32    1
    28    31    33    1
    29    31    34    1
    30    28    35    1
    31    35    36    1
    32    35    37    1
    33    35    38    1
    34    25    26   ar
    35    26    27   ar
    36    10     5   ar
    37    27    22   ar
    38    16     8    1
    39     3     4    1
    40    29    30    1
@<TRIPOS>MOLECULE
*****
 38 40 0 0 0
SMALL
GASTEIGER

@<TRIPOS>ATOM
      1 C         141.4294  139.5070  158.9578 C.2     1  UNL1        0.2485
      2 O         140.8235  140.8092  159.3904 O.2     1  UNL1       -0.2726
      3 N         141.3907  138.3205  159.8747 N.am    1  UNL1       -0.2823
      4 H         141.7884  137.4658  159.5908 H       1  UNL1        0.1549
      5 C         145.7936  141.0887  155.7815 C.ar    1  UNL1        0.1054
      6 C         145.5233  141.4775  157.2047 C.ar    1  UNL1        0.0181
      7 C         144.3018  140.9598  157.9047 C.ar    1  UNL1       -0.0011
      8 C         143.3506  140.0532  157.1814 C.ar    1  UNL1        0.0022
      9 C         143.6208  139.6644  155.7581 C.ar    1  UNL1       -0.0030
     10 C         144.8423  140.1821  155.0581 C.ar    1  UNL1        0.0155
     11 C         142.5113  138.7621  155.3054 C.3     1  UNL1        0.1206
     12 N         141.5553  138.5934  156.4489 N.am    1  UNL1       -0.2655
     13 C         140.3008  137.7710  156.4354 C.2     1  UNL1        0.2269
     14 C         139.9076  137.0231  155.1960 C.3     1  UNL1        0.0949
     15 O         139.4396  137.6966  157.6612 O.2     1  UNL1       -0.2748
     16 C         142.0740  139.3913  157.6083 C.3     1  UNL1        0.1750
     17 S         147.0151  141.6064  155.0815 S.O2    1  UNL1        0.0086
     18 O         146.5085  141.0481  153.7847 O.2     1  UNL1       -0.1686
     19 O         147.5216  142.1646  156.3784 O.2     1  UNL1       -0.1686
     20 C         149.5996  141.8242  154.9312 C.3     1  UNL1        0.0276
     21 C         148.2365  142.1241  154.3816 C.3     1  UNL1        0.1560
     22 C         140.7461  138.4362  161.2241 C.ar    1  UNL1        0.0503
     23 C         139.3341  137.9705  161.4233 C.ar    1  UNL1        0.0144
     24 C         138.6895  138.0863  162.7727 C.ar    1  UNL1       -0.0002
     25 C         139.4567  138.6677  163.9231 C.ar    1  UNL1        0.0182
     26 C         140.8686  139.1334  163.7239 C.ar    1  UNL1       -0.0002
     27 C         141.5132  139.0176  162.3745 C.ar    1  UNL1        0.0144
     28 C         138.8121  138.7834  165.2725 C.3     1  UNL1        0.2827
     29 O         139.1422  137.3474  165.5534 O.3     1  UNL1       -0.3692
     30 H         139.6064  136.9673  164.7912 H       1  UNL1        0.2112
     31 C         138.1674  138.8991  166.6220 C.3     1  UNL1        0.4311
     32 F         137.5228  139.0148  167.9715 F       1  UNL1       -0.1669
     33 F         139.5026  139.2043  167.2336 F       1  UNL1       -0.1669
     34 F         137.3385  138.7285  166.3606 F       1  UNL1       -0.1669
     35 C         138.4819  140.2194  164.9917 C.3     1  UNL1        0.4311
     36 F         138.1518  141.6554  164.7108 F       1  UNL1       -0.1669
     37 F         137.7560  140.0704  164.5064 F       1  UNL1       -0.1669
     38 F         139.5643  140.9846  165.6936 F       1  UNL1       -0.1669
@<TRIPOS>BOND
     1    20    21    1
     2    21    17    1
     3    17    18    2
     4    17    19    2
     5    17     5    1
     6     5     6   ar
     7     6     7   ar
     8     7     8   ar
     9     8     9   ar
    10     9    10   ar
    11     9    11    1
    12    11    12    1
    13    12    13   am
    14    13    14    1
    15    13    15    2
    16    12    16    1
    17    16     1    1
    18     1     2    2
    19     1     3   am
    20     3    22    1
    21    22    23   ar
    22    23    24   ar
    23    24    25   ar
    24    25    28    1
    25    28    29    1
    26    28    31    1
    27    31    32    1
    28    31    33    1
    29    31    34    1
    30    28    35    1
    31    35    36    1
    32    35    37    1
    33    35    38    1
    34    25    26   ar
    35    26    27   ar
    36    10     5   ar
    37    27    22   ar
    38    16     8    1
    39     3     4    1
    40    29    30    1
@<TRIPOS>MOLECULE
*****
 38 40 0 0 0
SMALL
GASTEIGER

@<TRIPOS>ATOM
      1 C         142.5462  137.9789  158.2060 C.2     1  UNL1        0.2485
      2 O         143.7177  138.8654  157.9034 O.2     1  UNL1       -0.2726
      3 N         141.8973  138.0289  159.5575 N.am    1  UNL1       -0.2823
      4 H         141.1284  137.4470  159.7561 H       1  UNL1        0.1549
      5 C         143.2743  132.9988  155.6951 C.ar    1  UNL1        0.1054
      6 C         144.1072  133.5871  156.7952 C.ar    1  UNL1        0.0181
      7 C         143.7681  134.9378  157.3523 C.ar    1  UNL1       -0.0011
      8 C         142.5960  135.7003  156.8095 C.ar    1  UNL1        0.0022
      9 C         141.7631  135.1121  155.7095 C.ar    1  UNL1       -0.0030
     10 C         142.1022  133.7613  155.1523 C.ar    1  UNL1        0.0155
     11 C         140.6758  136.0907  155.3773 C.3     1  UNL1        0.1206
     12 N         140.8368  137.2837  156.2721 N.am    1  UNL1       -0.2655
     13 C         139.9643  138.5039  156.2804 C.2     1  UNL1        0.2269
     14 C         138.8067  138.6045  155.3319 C.3     1  UNL1        0.0949
     15 O         140.2494  139.6233  157.2372 O.2     1  UNL1       -0.2748
     16 C         142.0236  137.0425  157.1573 C.3     1  UNL1        0.1750
     17 S         143.6134  131.6481  155.1379 S.O2    1  UNL1        0.0086
     18 O         142.2397  131.5483  154.5438 O.2     1  UNL1       -0.1686
     19 O         144.9871  131.7479  155.7321 O.2     1  UNL1       -0.1686
     20 C         144.9290  129.4135  155.2986 C.3     1  UNL1        0.0276
     21 C         143.9525  130.2973  154.5808 C.3     1  UNL1        0.1560
     22 C         142.4199  138.9654  160.6062 C.ar    1  UNL1        0.0503
     23 C         141.8130  140.3279  160.7647 C.ar    1  UNL1        0.0144
     24 C         142.3357  141.2644  161.8134 C.ar    1  UNL1       -0.0002
     25 C         143.4651  140.8384  162.7038 C.ar    1  UNL1        0.0182
     26 C         144.0719  139.4758  162.5454 C.ar    1  UNL1       -0.0002
     27 C         143.5493  138.5393  161.4966 C.ar    1  UNL1        0.0144
     28 C         143.9877  141.7748  163.7526 C.3     1  UNL1        0.2827
     29 O         143.5730  140.8084  164.8221 O.3     1  UNL1       -0.3692
     30 H         143.1649  140.0291  164.4133 H       1  UNL1        0.2112
     31 C         144.5103  142.7113  164.8013 C.3     1  UNL1        0.4311
     32 F         145.0329  143.6477  165.8501 F       1  UNL1       -0.1669
     33 F         143.1044  143.0442  165.2046 F       1  UNL1       -0.1669
     34 F         145.3719  142.5836  164.6404 F       1  UNL1       -0.1669
     35 C         144.4024  142.7412  162.6830 C.3     1  UNL1        0.4311
     36 F         144.8171  143.7077  161.6134 F       1  UNL1       -0.1669
     37 F         143.7791  143.3505  162.8403 F       1  UNL1       -0.1669
     38 F         145.5841  142.0816  162.0362 F       1  UNL1       -0.1669
@<TRIPOS>BOND
     1    20    21    1
     2    21    17    1
     3    17    18    2
     4    17    19    2
     5    17     5    1
     6     5     6   ar
     7     6     7   ar
     8     7     8   ar
     9     8     9   ar
    10     9    10   ar
    11     9    11    1
    12    11    12    1
    13    12    13   am
    14    13    14    1
    15    13    15    2
    16    12    16    1
    17    16     1    1
    18     1     2    2
    19     1     3   am
    20     3    22    1
    21    22    23   ar
    22    23    24   ar
    23    24    25   ar
    24    25    28    1
    25    28    29    1
    26    28    31    1
    27    31    32    1
    28    31    33    1
    29    31    34    1
    30    28    35    1
    31    35    36    1
    32    35    37    1
    33    35    38    1
    34    25    26   ar
    35    26    27   ar
    36    10     5   ar
    37    27    22   ar
    38    16     8    1
    39     3     4    1
    40    29    30    1
@<TRIPOS>MOLECULE
*****
 38 40 0 0 0
SMALL
GASTEIGER

@<TRIPOS>ATOM
      1 C         141.6576  139.0730  158.6352 C.2     1  UNL1        0.2485
      2 O         142.3715  138.1229  159.5503 O.2     1  UNL1       -0.2726
      3 N         140.4765  139.8509  159.1351 N.am    1  UNL1       -0.2823
      4 H         140.0079  140.4745  158.5345 H       1  UNL1        0.1549
      5 C         145.6611  141.2410  155.3325 C.ar    1  UNL1        0.1054
      6 C         145.5864  141.3129  156.8289 C.ar    1  UNL1        0.0181
      7 C         144.4392  140.6744  157.5541 C.ar    1  UNL1       -0.0011
      8 C         143.3666  139.9638  156.7830 C.ar    1  UNL1        0.0022
      9 C         143.4413  139.8918  155.2866 C.ar    1  UNL1       -0.0030
     10 C         144.5886  140.5304  154.5614 C.ar    1  UNL1        0.0155
     11 C         142.2455  139.1287  154.7990 C.3     1  UNL1        0.1206
     12 N         141.4317  138.7291  155.9940 N.am    1  UNL1       -0.2655
     13 C         140.1501  137.9501  155.9675 C.2     1  UNL1        0.2269
     14 C         139.5739  137.4983  154.6584 C.3     1  UNL1        0.0949
     15 O         139.4446  137.6230  157.2502 O.2     1  UNL1       -0.2748
     16 C         142.1246  139.2452  157.2202 C.3     1  UNL1        0.1750
     17 S         146.8084  141.8795  154.6072 S.O2    1  UNL1        0.0086
     18 O         147.2762  142.4976  155.8914 O.2     1  UNL1       -0.1686
     19 O         146.3406  141.2615  153.3230 O.2     1  UNL1       -0.1686
     20 C         147.8634  143.9504  153.4460 C.3     1  UNL1        0.0276
     21 C         147.9556  142.5181  153.8820 C.3     1  UNL1        0.1560
     22 C         140.0094  139.6787  160.5501 C.ar    1  UNL1        0.0503
     23 C         140.7709  140.3165  161.6741 C.ar    1  UNL1        0.0144
     24 C         140.3038  140.1442  163.0891 C.ar    1  UNL1       -0.0002
     25 C         139.0754  139.3343  163.3801 C.ar    1  UNL1        0.0182
     26 C         138.3139  138.6965  162.2561 C.ar    1  UNL1       -0.0002
     27 C         138.7810  138.8687  160.8411 C.ar    1  UNL1        0.0144
     28 C         138.6083  139.1621  164.7951 C.3     1  UNL1        0.2827
     29 O         137.6923  140.3392  164.6360 O.3     1  UNL1       -0.3692
     30 H         137.7796  140.6979  163.7390 H       1  UNL1        0.2112
     31 C         138.1412  138.9898  166.2101 C.3     1  UNL1        0.4311
     32 F         137.6742  138.8176  167.6250 F       1  UNL1       -0.1669
     33 F         138.8019  140.2831  166.5856 F       1  UNL1       -0.1669
     34 F         137.7204  138.2194  166.0918 F       1  UNL1       -0.1669
     35 C         139.5243  137.9849  164.9542 C.3     1  UNL1        0.4311
     36 F         140.4403  136.8078  165.1133 F       1  UNL1       -0.1669
     37 F         139.0318  137.4031  164.5031 F       1  UNL1       -0.1669
     38 F         140.6705  138.5230  165.7583 F       1  UNL1       -0.1669
@<TRIPOS>BOND
     1    20    21    1
     2    21    17    1
     3    17    18    2
     4    17    19    2
     5    17     5    1
     6     5     6   ar
     7     6     7   ar
     8     7     8   ar
     9     8     9   ar
    10     9    10   ar
    11     9    11    1
    12    11    12    1
    13    12    13   am
    14    13    14    1
    15    13    15    2
    16    12    16    1
    17    16     1    1
    18     1     2    2
    19     1     3   am
    20     3    22    1
    21    22    23   ar
    22    23    24   ar
    23    24    25   ar
    24    25    28    1
    25    28    29    1
    26    28    31    1
    27    31    32    1
    28    31    33    1
    29    31    34    1
    30    28    35    1
    31    35    36    1
    32    35    37    1
    33    35    38    1
    34    25    26   ar
    35    26    27   ar
    36    10     5   ar
    37    27    22   ar
    38    16     8    1
    39     3     4    1
    40    29    30    1
@<TRIPOS>MOLECULE
*****
 38 40 0 0 0
SMALL
GASTEIGER

@<TRIPOS>ATOM
      1 C         142.6155  138.2289  157.2993 C.2     1  UNL1        0.2485
      2 O         141.4419  138.3609  158.2242 O.2     1  UNL1       -0.2726
      3 N         143.7954  139.1427  157.4500 N.am    1  UNL1       -0.2823
      4 H         144.5657  139.0562  156.8430 H       1  UNL1        0.1549
      5 C         143.5935  132.8159  156.1251 C.ar    1  UNL1        0.1054
      6 C         143.7432  133.4940  157.4547 C.ar    1  UNL1        0.0181
      7 C         143.4370  134.9562  157.5896 C.ar    1  UNL1       -0.0011
      8 C         142.9812  135.7404  156.3949 C.ar    1  UNL1        0.0022
      9 C         142.8315  135.0623  155.0654 C.ar    1  UNL1       -0.0030
     10 C         143.1377  133.6001  154.9304 C.ar    1  UNL1        0.0155
     11 C         142.3669  136.0863  154.0725 C.3     1  UNL1        0.1206
     12 N         142.2294  137.3971  154.7885 N.am    1  UNL1       -0.2655
     13 C         141.7894  138.6941  154.1767 C.2     1  UNL1        0.2269
     14 C         141.4399  138.7554  152.7193 C.3     1  UNL1        0.0949
     15 O         141.6991  139.9298  155.0222 O.2     1  UNL1       -0.2748
     16 C         142.6091  137.1833  156.2239 C.3     1  UNL1        0.1750
     17 S         143.8997  131.3537  155.9902 S.O2    1  UNL1        0.0086
     18 O         142.4365  131.0615  155.8363 O.2     1  UNL1       -0.1686
     19 O         145.3629  131.6459  156.1441 O.2     1  UNL1       -0.1686
     20 C         144.7668  129.3581  154.5705 C.3     1  UNL1        0.0276
     21 C         144.2058  129.8915  155.8553 C.3     1  UNL1        0.1560
     22 C         143.8018  140.1883  158.5254 C.ar    1  UNL1        0.0503
     23 C         143.9080  141.6393  158.1602 C.ar    1  UNL1        0.0144
     24 C         143.9144  142.6849  159.2356 C.ar    1  UNL1       -0.0002
     25 C         143.8146  142.2796  160.6764 C.ar    1  UNL1        0.0182
     26 C         143.7085  140.8287  161.0416 C.ar    1  UNL1       -0.0002
     27 C         143.7021  139.7831  159.9662 C.ar    1  UNL1        0.0144
     28 C         143.8210  143.3253  161.7518 C.3     1  UNL1        0.2827
     29 O         142.7324  144.0684  161.0359 O.3     1  UNL1       -0.3692
     30 H         142.4938  143.5910  160.2258 H       1  UNL1        0.2112
     31 C         143.8274  144.3709  162.8273 C.3     1  UNL1        0.4311
     32 F         143.8338  145.4165  163.9028 F       1  UNL1       -0.1669
     33 F         142.4627  143.9286  163.2654 F       1  UNL1       -0.1669
     34 F         144.6278  144.7053  162.6479 F       1  UNL1       -0.1669
     35 C         144.9097  142.5822  162.4678 C.3     1  UNL1        0.4311
     36 F         145.9983  141.8391  163.1838 F       1  UNL1       -0.1669
     37 F         145.5310  142.6724  161.8431 F       1  UNL1       -0.1669
     38 F         144.2743  142.1644  163.7608 F       1  UNL1       -0.1669
@<TRIPOS>BOND
     1    20    21    1
     2    21    17    1
     3    17    18    2
     4    17    19    2
     5    17     5    1
     6     5     6   ar
     7     6     7   ar
     8     7     8   ar
     9     8     9   ar
    10     9    10   ar
    11     9    11    1
    12    11    12    1
    13    12    13   am
    14    13    14    1
    15    13    15    2
    16    12    16    1
    17    16     1    1
    18     1     2    2
    19     1     3   am
    20     3    22    1
    21    22    23   ar
    22    23    24   ar
    23    24    25   ar
    24    25    28    1
    25    28    29    1
    26    28    31    1
    27    31    32    1
    28    31    33    1
    29    31    34    1
    30    28    35    1
    31    35    36    1
    32    35    37    1
    33    35    38    1
    34    25    26   ar
    35    26    27   ar
    36    10     5   ar
    37    27    22   ar
    38    16     8    1
    39     3     4    1
    40    29    30    1
@<TRIPOS>MOLECULE
*****
 38 40 0 0 0
SMALL
GASTEIGER

@<TRIPOS>ATOM
      1 C         141.3623  142.6699  162.8075 C.2     1  UNL1        0.2485
      2 O         140.6816  141.3459  162.9907 O.2     1  UNL1       -0.2726
      3 N         141.8441  143.4371  164.0030 N.am    1  UNL1       -0.2823
      4 H         142.2909  144.3062  163.8828 H       1  UNL1        0.1549
      5 C         143.9020  141.9049  157.8476 C.ar    1  UNL1        0.1054
      6 C         143.9904  141.0190  159.0547 C.ar    1  UNL1        0.0181
      7 C         143.2417  141.3769  160.3042 C.ar    1  UNL1       -0.0011
      8 C         142.4046  142.6209  160.3466 C.ar    1  UNL1        0.0022
      9 C         142.3162  143.5068  159.1395 C.ar    1  UNL1       -0.0030
     10 C         143.0649  143.1488  157.8899 C.ar    1  UNL1        0.0155
     11 C         141.4180  144.6603  159.4757 C.3     1  UNL1        0.1206
     12 N         140.9514  144.4871  160.8907 N.am    1  UNL1       -0.2655
     13 C         140.0358  145.4120  161.6366 C.2     1  UNL1        0.2269
     14 C         139.5014  146.6417  160.9641 C.3     1  UNL1        0.0949
     15 O         139.6546  145.1072  163.0550 O.2     1  UNL1       -0.2748
     16 C         141.5611  143.2267  161.4290 C.3     1  UNL1        0.1750
     17 S         144.6507  141.5469  156.5981 S.O2    1  UNL1        0.0086
     18 O         144.2394  142.8495  155.9784 O.2     1  UNL1       -0.1686
     19 O         145.0620  140.2443  157.2177 O.2     1  UNL1       -0.1686
     20 C         146.8893  141.3537  155.2937 C.3     1  UNL1        0.0276
     21 C         145.3994  141.1889  155.3486 C.3     1  UNL1        0.1560
     22 C         141.6453  142.8803  165.3815 C.ar    1  UNL1        0.0503
     23 C         140.3655  143.1422  166.1188 C.ar    1  UNL1        0.0144
     24 C         140.1667  142.5854  167.4974 C.ar    1  UNL1       -0.0002
     25 C         141.2476  141.7667  168.1387 C.ar    1  UNL1        0.0182
     26 C         142.5273  141.5048  167.4014 C.ar    1  UNL1       -0.0002
     27 C         142.7262  142.0616  166.0229 C.ar    1  UNL1        0.0144
     28 C         141.0487  141.2099  169.5172 C.3     1  UNL1        0.2827
     29 O         142.2297  141.9956  170.0050 O.3     1  UNL1       -0.3692
     30 H         142.6055  142.5045  169.2696 H       1  UNL1        0.2112
     31 C         140.8499  140.6531  170.8958 C.3     1  UNL1        0.4311
     32 F         140.6511  140.0963  172.2743 F       1  UNL1       -0.1669
     33 F         140.5865  142.0351  171.4160 F       1  UNL1       -0.1669
     34 F         140.9900  139.8030  170.6901 F       1  UNL1       -0.1669
     35 C         139.8677  140.4242  169.0295 C.3     1  UNL1        0.4311
     36 F         138.6867  139.6384  168.5418 F       1  UNL1       -0.1669
     37 F         140.3097  139.9039  168.4652 F       1  UNL1       -0.1669
     38 F         138.7094  141.0017  169.7876 F       1  UNL1       -0.1669
@<TRIPOS>BOND
     1    20    21    1
     2    21    17    1
     3    17    18    2
     4    17    19    2
     5    17     5    1
     6     5     6   ar
     7     6     7   ar
     8     7     8   ar
     9     8     9   ar
    10     9    10   ar
    11     9    11    1
    12    11    12    1
    13    12    13   am
    14    13    14    1
    15    13    15    2
    16    12    16    1
    17    16     1    1
    18     1     2    2
    19     1     3   am
    20     3    22    1
    21    22    23   ar
    22    23    24   ar
    23    24    25   ar
    24    25    28    1
    25    28    29    1
    26    28    31    1
    27    31    32    1
    28    31    33    1
    29    31    34    1
    30    28    35    1
    31    35    36    1
    32    35    37    1
    33    35    38    1
    34    25    26   ar
    35    26    27   ar
    36    10     5   ar
    37    27    22   ar
    38    16     8    1
    39     3     4    1
    40    29    30    1
@<TRIPOS>MOLECULE
*****
 38 40 0 0 0
SMALL
GASTEIGER

@<TRIPOS>ATOM
      1 C         142.1814  140.9741  158.6326 C.2     1  UNL1        0.2485
      2 O         140.8692  141.5905  158.2477 O.2     1  UNL1       -0.2726
      3 N         142.6800  141.0911  160.0425 N.am    1  UNL1       -0.2823
      4 H         143.5413  140.6866  160.2952 H       1  UNL1        0.1549
      5 C         142.4962  136.3555  155.4381 C.ar    1  UNL1        0.1054
      6 C         141.4077  136.7125  156.4064 C.ar    1  UNL1        0.0181
      7 C         141.4844  137.9943  157.1818 C.ar    1  UNL1       -0.0011
      8 C         142.6495  138.9190  156.9888 C.ar    1  UNL1        0.0022
      9 C         143.7380  138.5620  156.0204 C.ar    1  UNL1       -0.0030
     10 C         143.6613  137.2802  155.2451 C.ar    1  UNL1        0.0155
     11 C         144.7563  139.6633  156.0409 C.3     1  UNL1        0.1206
     12 N         144.2971  140.7009  157.0219 N.am    1  UNL1       -0.2655
     13 C         145.0141  141.9749  157.3582 C.2     1  UNL1        0.2269
     14 C         146.3153  142.3026  156.6877 C.3     1  UNL1        0.0949
     15 O         144.4300  142.9210  158.3649 O.2     1  UNL1       -0.2748
     16 C         142.9951  140.2409  157.6077 C.3     1  UNL1        0.1750
     17 S         142.4195  135.0737  154.6627 S.O2    1  UNL1        0.0086
     18 O         141.1264  135.5223  154.0490 O.2     1  UNL1       -0.1686
     19 O         143.7126  134.6251  155.2764 O.2     1  UNL1       -0.1686
     20 C         142.9658  132.5437  154.4384 C.3     1  UNL1        0.0276
     21 C         142.3428  133.7919  153.8874 C.3     1  UNL1        0.1560
     22 C         141.8664  141.8243  161.0674 C.ar    1  UNL1        0.0503
     23 C         141.0040  141.0597  162.0275 C.ar    1  UNL1        0.0144
     24 C         140.1904  141.7929  163.0523 C.ar    1  UNL1       -0.0002
     25 C         140.2390  143.2907  163.1172 C.ar    1  UNL1        0.0182
     26 C         141.1013  144.0553  162.1570 C.ar    1  UNL1       -0.0002
     27 C         141.9150  143.3221  161.1322 C.ar    1  UNL1        0.0144
     28 C         139.4254  144.0239  164.1420 C.3     1  UNL1        0.2827
     29 O         138.5270  144.5419  163.0582 O.3     1  UNL1       -0.3692
     30 H         138.8294  144.2065  162.1998 H       1  UNL1        0.2112
     31 C         138.6117  144.7571  165.1669 C.3     1  UNL1        0.4311
     32 F         137.7981  145.4903  166.1917 F       1  UNL1       -0.1669
     33 F         137.4278  143.8944  164.8442 F       1  UNL1       -0.1669
     34 F         139.2470  145.3155  165.4298 F       1  UNL1       -0.1669
     35 C         140.3237  143.5059  165.2258 C.3     1  UNL1        0.4311
     36 F         141.2221  142.9880  166.3096 F       1  UNL1       -0.1669
     37 F         141.0321  143.9976  165.0231 F       1  UNL1       -0.1669
     38 F         139.4756  142.5049  165.9528 F       1  UNL1       -0.1669
@<TRIPOS>BOND
     1    20    21    1
     2    21    17    1
     3    17    18    2
     4    17    19    2
     5    17     5    1
     6     5     6   ar
     7     6     7   ar
     8     7     8   ar
     9     8     9   ar
    10     9    10   ar
    11     9    11    1
    12    11    12    1
    13    12    13   am
    14    13    14    1
    15    13    15    2
    16    12    16    1
    17    16     1    1
    18     1     2    2
    19     1     3   am
    20     3    22    1
    21    22    23   ar
    22    23    24   ar
    23    24    25   ar
    24    25    28    1
    25    28    29    1
    26    28    31    1
    27    31    32    1
    28    31    33    1
    29    31    34    1
    30    28    35    1
    31    35    36    1
    32    35    37    1
    33    35    38    1
    34    25    26   ar
    35    26    27   ar
    36    10     5   ar
    37    27    22   ar
    38    16     8    1
    39     3     4    1
    40    29    30    1
@<TRIPOS>MOLECULE
*****
 38 40 0 0 0
SMALL
GASTEIGER

@<TRIPOS>ATOM
      1 C         141.9124  142.2419  161.9976 C.2     1  UNL1        0.2485
      2 O         143.0143  143.1065  162.5343 O.2     1  UNL1       -0.2726
      3 N         141.0016  141.5152  162.9422 N.am    1  UNL1       -0.2823
      4 H         140.2783  140.9477  162.5900 H       1  UNL1        0.1549
      5 C         140.3434  144.8817  157.2852 C.ar    1  UNL1        0.1054
      6 C         140.3841  145.4537  158.6712 C.ar    1  UNL1        0.0181
      7 C         140.8319  144.6015  159.8215 C.ar    1  UNL1       -0.0011
      8 C         141.2391  143.1772  159.5858 C.ar    1  UNL1        0.0022
      9 C         141.1984  142.6052  158.1998 C.ar    1  UNL1       -0.0030
     10 C         140.7505  143.4574  157.0495 C.ar    1  UNL1        0.0155
     11 C         141.6553  141.1783  158.2736 C.3     1  UNL1        0.1206
     12 N         141.9784  140.8686  159.7052 N.am    1  UNL1       -0.2655
     13 C         142.4720  139.5542  160.2333 C.2     1  UNL1        0.2269
     14 C         142.6836  138.4016  159.2970 C.3     1  UNL1        0.0949
     15 O         142.7541  139.3925  161.6976 O.2     1  UNL1       -0.2748
     16 C         141.7211  142.1040  160.5162 C.3     1  UNL1        0.1750
     17 S         139.8955  145.7339  156.1349 S.O2    1  UNL1        0.0086
     18 O         139.6412  146.8726  157.0776 O.2     1  UNL1       -0.1686
     19 O         140.1499  144.5952  155.1923 O.2     1  UNL1       -0.1686
     20 C         138.9365  147.9741  155.2340 C.3     1  UNL1        0.0276
     21 C         139.4477  146.5861  154.9847 C.3     1  UNL1        0.1560
     22 C         141.1928  141.6531  164.4236 C.ar    1  UNL1        0.0503
     23 C         142.2483  140.8478  165.1218 C.ar    1  UNL1        0.0144
     24 C         142.4396  140.9857  166.6031 C.ar    1  UNL1       -0.0002
     25 C         141.5754  141.9289  167.3863 C.ar    1  UNL1        0.0182
     26 C         140.5199  142.7342  166.6882 C.ar    1  UNL1       -0.0002
     27 C         140.3287  142.5963  165.2068 C.ar    1  UNL1        0.0144
     28 C         141.7666  142.0669  168.8677 C.3     1  UNL1        0.2827
     29 O         143.1212  142.6683  168.6368 O.3     1  UNL1       -0.3692
     30 H         143.2966  142.7138  167.6839 H       1  UNL1        0.2112
     31 C         141.9578  142.2048  170.3490 C.3     1  UNL1        0.4311
     32 F         142.1491  142.3427  171.8304 F       1  UNL1       -0.1669
     33 F         141.9086  143.6981  170.2163 F       1  UNL1       -0.1669
     34 F         142.0004  141.3395  170.5334 F       1  UNL1       -0.1669
     35 C         140.4120  141.4655  169.0986 C.3     1  UNL1        0.4311
     36 F         139.0574  140.8641  169.3294 F       1  UNL1       -0.1669
     37 F         140.0037  142.2112  169.3471 F       1  UNL1       -0.1669
     38 F         140.5987  140.0138  168.7704 F       1  UNL1       -0.1669
@<TRIPOS>BOND
     1    20    21    1
     2    21    17    1
     3    17    18    2
     4    17    19    2
     5    17     5    1
     6     5     6   ar
     7     6     7   ar
     8     7     8   ar
     9     8     9   ar
    10     9    10   ar
    11     9    11    1
    12    11    12    1
    13    12    13   am
    14    13    14    1
    15    13    15    2
    16    12    16    1
    17    16     1    1
    18     1     2    2
    19     1     3   am
    20     3    22    1
    21    22    23   ar
    22    23    24   ar
    23    24    25   ar
    24    25    28    1
    25    28    29    1
    26    28    31    1
    27    31    32    1
    28    31    33    1
    29    31    34    1
    30    28    35    1
    31    35    36    1
    32    35    37    1
    33    35    38    1
    34    25    26   ar
    35    26    27   ar
    36    10     5   ar
    37    27    22   ar
    38    16     8    1
    39     3     4    1
    40    29    30    1
@<TRIPOS>MOLECULE
*****
 38 40 0 0 0
SMALL
GASTEIGER

@<TRIPOS>ATOM
      1 C         142.5805  138.8787  158.2201 C.2     1  UNL1        0.2485
      2 O         142.9078  137.7300  159.1274 O.2     1  UNL1       -0.2726
      3 N         142.3277  138.6342  156.7619 N.am    1  UNL1       -0.2823
      4 H         142.1128  139.3881  156.1664 H       1  UNL1        0.1549
      5 C         139.6223  142.4085  161.4490 C.ar    1  UNL1        0.1054
      6 C         139.3004  140.9751  161.1461 C.ar    1  UNL1        0.0181
      7 C         140.2062  140.1744  160.2583 C.ar    1  UNL1       -0.0011
      8 C         141.4340  140.8071  159.6732 C.ar    1  UNL1        0.0022
      9 C         141.7559  142.2405  159.9760 C.ar    1  UNL1       -0.0030
     10 C         140.8500  143.0412  160.8639 C.ar    1  UNL1        0.0155
     11 C         143.0269  142.5913  159.2608 C.3     1  UNL1        0.1206
     12 N         143.4905  141.3746  158.5160 N.am    1  UNL1       -0.2655
     13 C         144.7224  141.2776  157.6656 C.2     1  UNL1        0.2269
     14 C         145.6171  142.4704  157.5026 C.3     1  UNL1        0.0949
     15 O         145.0595  139.9877  156.9782 O.2     1  UNL1       -0.2748
     16 C         142.5060  140.2719  158.7709 C.3     1  UNL1        0.1750
     17 S         138.7164  143.2092  162.3368 S.O2    1  UNL1        0.0086
     18 O         137.6546  143.1823  161.2777 O.2     1  UNL1       -0.1686
     19 O         139.7783  143.2361  163.3959 O.2     1  UNL1       -0.1686
     20 C         138.0720  144.0744  164.7003 C.3     1  UNL1        0.0276
     21 C         137.8106  144.0099  163.2247 C.3     1  UNL1        0.1560
     22 C         142.4022  137.2409  156.2112 C.ar    1  UNL1        0.0503
     23 C         141.1429  136.5029  155.8651 C.ar    1  UNL1        0.0144
     24 C         141.2174  135.1097  155.3143 C.ar    1  UNL1       -0.0002
     25 C         142.5511  134.4544  155.1096 C.ar    1  UNL1        0.0182
     26 C         143.8103  135.1924  155.4556 C.ar    1  UNL1       -0.0002
     27 C         143.7358  136.5857  156.0064 C.ar    1  UNL1        0.0144
     28 C         142.6255  133.0612  154.5588 C.3     1  UNL1        0.2827
     29 O         142.1906  133.5688  153.2160 O.3     1  UNL1       -0.3692
     30 H         142.0515  134.5277  153.2623 H       1  UNL1        0.2112
     31 C         142.7000  131.6680  154.0080 C.3     1  UNL1        0.4311
     32 F         142.7745  130.2748  153.4573 F       1  UNL1       -0.1669
     33 F         141.3521  131.3650  154.5923 F       1  UNL1       -0.1669
     34 F         143.4954  131.7453  153.6260 F       1  UNL1       -0.1669
     35 C         143.0604  132.5536  155.9016 C.3     1  UNL1        0.4311
     36 F         143.4953  132.0460  157.2444 F       1  UNL1       -0.1669
     37 F         142.2749  132.6264  156.3042 F       1  UNL1       -0.1669
     38 F         144.5181  132.2497  155.7201 F       1  UNL1       -0.1669
@<TRIPOS>BOND
     1    20    21    1
     2    21    17    1
     3    17    18    2
     4    17    19    2
     5    17     5    1
     6     5     6   ar
     7     6     7   ar
     8     7     8   ar
     9     8     9   ar
    10     9    10   ar
    11     9    11    1
    12    11    12    1
    13    12    13   am
    14    13    14    1
    15    13    15    2
    16    12    16    1
    17    16     1    1
    18     1     2    2
    19     1     3   am
    20     3    22    1
    21    22    23   ar
    22    23    24   ar
    23    24    25   ar
    24    25    28    1
    25    28    29    1
    26    28    31    1
    27    31    32    1
    28    31    33    1
    29    31    34    1
    30    28    35    1
    31    35    36    1
    32    35    37    1
    33    35    38    1
    34    25    26   ar
    35    26    27   ar
    36    10     5   ar
    37    27    22   ar
    38    16     8    1
    39     3     4    1
    40    29    30    1
