@<TRIPOS>MOLECULE
*****
 32 35 0 0 0
SMALL
GASTEIGER

@<TRIPOS>ATOM
      1 C         140.8991  138.8602  163.1791 C.ar    1  UNL1        0.0783
      2 C         141.4618  139.1752  161.8248 C.ar    1  UNL1        0.1053
      3 N         142.0344  140.5336  161.5479 N.ar    1  UNL1       -0.2290
      4 C         142.0443  141.5772  162.6254 C.ar    1  UNL1        0.1322
      5 C         141.4816  141.2622  163.9797 C.ar    1  UNL1        0.0383
      6 C         141.3550  142.0821  165.2294 C.ar    1  UNL1        0.0098
      7 C         140.7042  141.2303  166.2786 C.ar    1  UNL1        0.0296
      8 S         140.4285  139.8840  165.6774 S.2     1  UNL1       -0.0866
      9 C         140.9090  139.9037  164.2565 C.ar    1  UNL1        0.0380
     10 C         140.3850  141.6510  167.6826 C.ar    1  UNL1        0.0060
     11 C         140.6855  143.0498  168.1331 C.ar    1  UNL1        0.0005
     12 C         140.3663  143.4703  169.5372 C.ar    1  UNL1        0.0000
     13 C         139.7466  142.4921  170.4907 C.ar    1  UNL1        0.0000
     14 C         139.4461  141.0933  170.0401 C.ar    1  UNL1        0.0000
     15 C         139.7653  140.6728  168.6361 C.ar    1  UNL1        0.0005
     16 N         141.2136  136.4024  163.9602 N.am    1  UNL1       -0.3253
     17 C         140.3264  137.5017  163.4559 C.2     1  UNL1        0.2448
     18 O         138.8665  137.2426  163.2284 O.2     1  UNL1       -0.2703
     19 H         140.8378  135.5108  164.1419 H       1  UNL1        0.1453
     20 H         142.1718  136.5725  164.1095 H       1  UNL1        0.1453
     21 N         142.6170  142.9357  162.3485 N.pl3   1  UNL1       -0.2909
     22 C         141.7045  144.0854  162.0396 C.3     1  UNL1        0.0900
     23 C         141.0856  144.2071  160.6787 C.3     1  UNL1        0.0226
     24 C         140.1731  145.3568  160.3698 C.3     1  UNL1        0.0188
     25 C         139.8795  146.3849  161.4218 C.3     1  UNL1        0.0687
     26 N         140.4984  146.2633  162.7827 N.3     1  UNL1       -0.2961
     27 C         141.4108  145.1135  163.0916 C.3     1  UNL1        0.0886
     28 H         139.7303  146.2178  163.4525 H       1  UNL1        0.1233
     29 C         144.1020  143.1443  162.3805 C.3     1  UNL1        0.1238
     30 C         144.9317  142.4689  163.4319 C.3     1  UNL1        0.1585
     31 O         146.2616  141.8760  163.0715 O.3     1  UNL1       -0.3802
     32 H         146.1296  141.1305  162.4652 H       1  UNL1        0.2105
@<TRIPOS>BOND
     1    16    17   am
     2    17    18    2
     3    17     1    1
     4     1     2   ar
     5     2     3   ar
     6     3     4   ar
     7     4    21    1
     8    21    29    1
     9    29    30    1
    10    30    31    1
    11    22    21    1
    12    22    23    1
    13    23    24    1
    14    24    25    1
    15    25    26    1
    16    26    27    1
    17     4     5   ar
    18     5     6   ar
    19     6     7   ar
    20     7    10    1
    21    10    11   ar
    22    11    12   ar
    23    12    13   ar
    24    13    14   ar
    25    14    15   ar
    26     7     8   ar
    27     8     9   ar
    28     9     1   ar
    29    27    22    1
    30     9     5   ar
    31    15    10   ar
    32    16    19    1
    33    16    20    1
    34    31    32    1
    35    26    28    1
@<TRIPOS>MOLECULE
*****
 32 35 0 0 0
SMALL
GASTEIGER

@<TRIPOS>ATOM
      1 C         143.2436  142.0537  162.5537 C.ar    1  UNL1        0.0783
      2 C         142.4766  141.5648  161.3610 C.ar    1  UNL1        0.1053
      3 N         141.0778  141.0501  161.5283 N.ar    1  UNL1       -0.2290
      4 C         140.4457  141.0242  162.8885 C.ar    1  UNL1        0.1322
      5 C         141.2127  141.5131  164.0812 C.ar    1  UNL1        0.0383
      6 C         140.8545  141.6083  165.5347 C.ar    1  UNL1        0.0098
      7 C         142.0321  142.1819  166.2656 C.ar    1  UNL1        0.0296
      8 S         143.1181  142.4412  165.2639 S.2     1  UNL1       -0.0866
      9 C         142.6116  142.0279  163.9138 C.ar    1  UNL1        0.0380
     10 C         142.1101  142.4493  167.7396 C.ar    1  UNL1        0.0060
     11 C         143.4094  142.2686  168.4669 C.ar    1  UNL1        0.0005
     12 C         143.4873  142.5360  169.9408 C.ar    1  UNL1        0.0000
     13 C         142.2659  142.9841  170.6874 C.ar    1  UNL1        0.0000
     14 C         140.9665  143.1647  169.9601 C.ar    1  UNL1        0.0000
     15 C         140.8887  142.8973  168.4862 C.ar    1  UNL1        0.0005
     16 N         144.8739  143.9971  161.9921 N.am    1  UNL1       -0.3253
     17 C         144.6425  142.5685  162.3863 C.2     1  UNL1        0.2448
     18 O         145.8102  141.6546  162.6133 O.2     1  UNL1       -0.2703
     19 H         145.7920  144.3350  161.8822 H       1  UNL1        0.1453
     20 H         144.1075  144.5970  161.8431 H       1  UNL1        0.1453
     21 N         139.0468  140.5094  163.0558 N.pl3   1  UNL1       -0.2909
     22 C         138.7424  139.4972  164.1201 C.3     1  UNL1        0.0900
     23 C         139.2079  138.0800  163.9624 C.3     1  UNL1        0.0226
     24 C         138.9036  137.0678  165.0267 C.3     1  UNL1        0.0188
     25 C         138.1337  137.4728  166.2487 C.3     1  UNL1        0.0687
     26 N         137.6681  138.8900  166.4064 N.3     1  UNL1       -0.2961
     27 C         137.9725  139.9022  165.3421 C.3     1  UNL1        0.0886
     28 H         138.0787  139.2402  167.2719 H       1  UNL1        0.1233
     29 C         137.9523  141.0069  162.1588 C.3     1  UNL1        0.1238
     30 C         138.0517  142.3692  161.5389 C.3     1  UNL1        0.1585
     31 O         137.3657  143.5377  162.1823 O.3     1  UNL1       -0.3802
     32 H         136.4049  143.4109  162.1422 H       1  UNL1        0.2105
@<TRIPOS>BOND
     1    16    17   am
     2    17    18    2
     3    17     1    1
     4     1     2   ar
     5     2     3   ar
     6     3     4   ar
     7     4    21    1
     8    21    29    1
     9    29    30    1
    10    30    31    1
    11    22    21    1
    12    22    23    1
    13    23    24    1
    14    24    25    1
    15    25    26    1
    16    26    27    1
    17     4     5   ar
    18     5     6   ar
    19     6     7   ar
    20     7    10    1
    21    10    11   ar
    22    11    12   ar
    23    12    13   ar
    24    13    14   ar
    25    14    15   ar
    26     7     8   ar
    27     8     9   ar
    28     9     1   ar
    29    27    22    1
    30     9     5   ar
    31    15    10   ar
    32    16    19    1
    33    16    20    1
    34    31    32    1
    35    26    28    1
@<TRIPOS>MOLECULE
*****
 32 35 0 0 0
SMALL
GASTEIGER

@<TRIPOS>ATOM
      1 C         143.7848  142.4578  163.6684 C.ar    1  UNL1        0.0783
      2 C         143.5760  142.4669  162.1830 C.ar    1  UNL1        0.1053
      3 N         142.1943  142.3166  161.6190 N.ar    1  UNL1       -0.2290
      4 C         141.0213  142.1571  162.5403 C.ar    1  UNL1        0.1322
      5 C         141.2302  142.1479  164.0257 C.ar    1  UNL1        0.0383
      6 C         140.2738  142.0089  165.1728 C.ar    1  UNL1        0.0098
      7 C         141.0645  142.0733  166.4459 C.ar    1  UNL1        0.0296
      8 S         142.5096  142.2522  166.0855 S.2     1  UNL1       -0.0866
      9 C         142.6119  142.2983  164.5897 C.ar    1  UNL1        0.0380
     10 C         140.5079  141.9759  167.8354 C.ar    1  UNL1        0.0060
     11 C         139.8363  140.7132  168.2875 C.ar    1  UNL1        0.0005
     12 C         139.2797  140.6159  169.6771 C.ar    1  UNL1        0.0000
     13 C         139.3948  141.7813  170.6145 C.ar    1  UNL1        0.0000
     14 C         140.0664  143.0440  170.1623 C.ar    1  UNL1        0.0000
     15 C         140.6230  143.1413  168.7728 C.ar    1  UNL1        0.0005
     16 N         146.3001  141.8071  163.6636 N.am    1  UNL1       -0.3253
     17 C         145.1666  142.6081  164.2324 C.2     1  UNL1        0.2448
     18 O         145.4149  143.5596  165.3652 O.2     1  UNL1       -0.2703
     19 H         147.2070  141.9058  164.0338 H       1  UNL1        0.1453
     20 H         146.1372  141.1827  162.9202 H       1  UNL1        0.1453
     21 N         139.6395  142.0067  161.9762 N.pl3   1  UNL1       -0.2909
     22 C         139.0095  140.6484  161.8872 C.3     1  UNL1        0.0900
     23 C         139.7384  139.4477  162.4137 C.3     1  UNL1        0.0226
     24 C         139.1084  138.0893  162.3246 C.3     1  UNL1        0.0188
     25 C         137.7496  137.9316  161.7092 C.3     1  UNL1        0.0687
     26 N         137.0208  139.1323  161.1827 N.3     1  UNL1       -0.2961
     27 C         137.6507  140.4907  161.2717 C.3     1  UNL1        0.0886
     28 H         136.1360  139.1844  161.6875 H       1  UNL1        0.1233
     29 C         138.8878  143.2147  161.5012 C.3     1  UNL1        0.1238
     30 C         138.6294  144.3547  162.4412 C.3     1  UNL1        0.1585
     31 O         137.2211  144.7761  162.7398 O.3     1  UNL1       -0.3802
     32 H         136.8130  145.1331  161.9356 H       1  UNL1        0.2105
@<TRIPOS>BOND
     1    16    17   am
     2    17    18    2
     3    17     1    1
     4     1     2   ar
     5     2     3   ar
     6     3     4   ar
     7     4    21    1
     8    21    29    1
     9    29    30    1
    10    30    31    1
    11    22    21    1
    12    22    23    1
    13    23    24    1
    14    24    25    1
    15    25    26    1
    16    26    27    1
    17     4     5   ar
    18     5     6   ar
    19     6     7   ar
    20     7    10    1
    21    10    11   ar
    22    11    12   ar
    23    12    13   ar
    24    13    14   ar
    25    14    15   ar
    26     7     8   ar
    27     8     9   ar
    28     9     1   ar
    29    27    22    1
    30     9     5   ar
    31    15    10   ar
    32    16    19    1
    33    16    20    1
    34    31    32    1
    35    26    28    1
@<TRIPOS>MOLECULE
*****
 32 35 0 0 0
SMALL
GASTEIGER

@<TRIPOS>ATOM
      1 C         143.9268  141.2523  163.3402 C.ar    1  UNL1        0.0783
      2 C         143.7733  141.5059  161.8698 C.ar    1  UNL1        0.1053
      3 N         142.4657  142.0009  161.3266 N.ar    1  UNL1       -0.2290
      4 C         141.3115  142.2424  162.2538 C.ar    1  UNL1        0.1322
      5 C         141.4651  141.9888  163.7242 C.ar    1  UNL1        0.0383
      6 C         140.5115  142.1351  164.8729 C.ar    1  UNL1        0.0098
      7 C         141.2299  141.7305  166.1260 C.ar    1  UNL1        0.0296
      8 S         142.6274  141.3341  165.7518 S.2     1  UNL1       -0.0866
      9 C         142.7727  141.4938  164.2674 C.ar    1  UNL1        0.0380
     10 C         140.6522  141.7235  167.5103 C.ar    1  UNL1        0.0060
     11 C         139.9568  140.4988  168.0265 C.ar    1  UNL1        0.0005
     12 C         139.3791  140.4919  169.4109 C.ar    1  UNL1        0.0000
     13 C         139.4969  141.7095  170.2789 C.ar    1  UNL1        0.0000
     14 C         140.1923  142.9342  169.7626 C.ar    1  UNL1        0.0000
     15 C         140.7700  142.9411  168.3783 C.ar    1  UNL1        0.0005
     16 N         146.4336  141.6584  163.8888 N.am    1  UNL1       -0.3253
     17 C         145.2344  140.7573  163.8834 C.2     1  UNL1        0.2448
     18 O         145.3429  139.3611  164.4211 O.2     1  UNL1       -0.2703
     19 H         147.2919  141.3335  164.2454 H       1  UNL1        0.1453
     20 H         146.3624  142.5747  163.5359 H       1  UNL1        0.1453
     21 N         140.0039  142.7374  161.7106 N.pl3   1  UNL1       -0.2909
     22 C         139.0067  141.7649  161.1539 C.3     1  UNL1        0.0900
     23 C         139.0139  141.4389  159.6898 C.3     1  UNL1        0.0226
     24 C         138.0167  140.4664  159.1331 C.3     1  UNL1        0.0188
     25 C         137.0124  139.8199  160.0405 C.3     1  UNL1        0.0687
     26 N         137.0053  140.1459  161.5046 N.3     1  UNL1       -0.2961
     27 C         138.0024  141.1184  162.0613 C.3     1  UNL1        0.0886
     28 H         137.1420  139.2664  162.0028 H       1  UNL1        0.1233
     29 C         139.6935  144.2049  161.7240 C.3     1  UNL1        0.1238
     30 C         138.8095  144.7746  162.7935 C.3     1  UNL1        0.1585
     31 O         137.3181  144.6815  162.6624 O.3     1  UNL1       -0.3802
     32 H         137.0258  145.2167  161.9080 H       1  UNL1        0.2105
@<TRIPOS>BOND
     1    16    17   am
     2    17    18    2
     3    17     1    1
     4     1     2   ar
     5     2     3   ar
     6     3     4   ar
     7     4    21    1
     8    21    29    1
     9    29    30    1
    10    30    31    1
    11    22    21    1
    12    22    23    1
    13    23    24    1
    14    24    25    1
    15    25    26    1
    16    26    27    1
    17     4     5   ar
    18     5     6   ar
    19     6     7   ar
    20     7    10    1
    21    10    11   ar
    22    11    12   ar
    23    12    13   ar
    24    13    14   ar
    25    14    15   ar
    26     7     8   ar
    27     8     9   ar
    28     9     1   ar
    29    27    22    1
    30     9     5   ar
    31    15    10   ar
    32    16    19    1
    33    16    20    1
    34    31    32    1
    35    26    28    1
@<TRIPOS>MOLECULE
*****
 32 35 0 0 0
SMALL
GASTEIGER

@<TRIPOS>ATOM
      1 C         139.5986  140.9402  159.1910 C.ar    1  UNL1        0.0783
      2 C         140.4344  142.0204  158.5709 C.ar    1  UNL1        0.1053
      3 N         141.2953  142.8923  159.4359 N.ar    1  UNL1       -0.2290
      4 C         141.3205  142.6841  160.9213 C.ar    1  UNL1        0.1322
      5 C         140.4847  141.6039  161.5414 C.ar    1  UNL1        0.0383
      6 C         140.3057  141.1659  162.9648 C.ar    1  UNL1        0.0098
      7 C         139.3340  140.0232  162.9793 C.ar    1  UNL1        0.0296
      8 S         138.9126  139.7550  161.5649 S.2     1  UNL1       -0.0866
      9 C         139.6237  140.7319  160.6762 C.ar    1  UNL1        0.0380
     10 C         138.8660  139.2793  164.1949 C.ar    1  UNL1        0.0060
     11 C         138.2875  140.0303  165.3573 C.ar    1  UNL1        0.0005
     12 C         137.8195  139.2863  166.5728 C.ar    1  UNL1        0.0000
     13 C         137.9299  137.7913  166.6259 C.ar    1  UNL1        0.0000
     14 C         138.5084  137.0403  165.4635 C.ar    1  UNL1        0.0000
     15 C         138.9765  137.7843  164.2480 C.ar    1  UNL1        0.0005
     16 N         137.3879  140.5500  157.8831 N.am    1  UNL1       -0.3253
     17 C         138.7376  140.0682  158.3258 C.2     1  UNL1        0.2448
     18 O         139.2265  138.7144  157.9034 O.2     1  UNL1       -0.2703
     19 H         136.8228  139.9777  157.3152 H       1  UNL1        0.1453
     20 H         137.0671  141.4385  158.1603 H       1  UNL1        0.1453
     21 N         142.1815  143.5561  161.7863 N.pl3   1  UNL1       -0.2909
     22 C         143.3947  142.9830  162.4569 C.3     1  UNL1        0.0900
     23 C         143.4578  142.9049  163.9535 C.3     1  UNL1        0.0226
     24 C         144.6710  142.3318  164.6241 C.3     1  UNL1        0.0188
     25 C         145.8211  141.8368  163.7981 C.3     1  UNL1        0.0687
     26 N         145.7580  141.9150  162.3015 N.3     1  UNL1       -0.2961
     27 C         144.5448  142.4881  161.6309 C.3     1  UNL1        0.0886
     28 H         145.8653  140.9627  161.9521 H       1  UNL1        0.1233
     29 C         141.8292  145.0011  161.9808 C.3     1  UNL1        0.1238
     30 C         140.3959  145.4063  162.1579 C.3     1  UNL1        0.1585
     31 O         140.0128  146.8552  162.0945 O.3     1  UNL1       -0.3802
     32 H         140.4087  147.3274  162.8436 H       1  UNL1        0.2105
@<TRIPOS>BOND
     1    16    17   am
     2    17    18    2
     3    17     1    1
     4     1     2   ar
     5     2     3   ar
     6     3     4   ar
     7     4    21    1
     8    21    29    1
     9    29    30    1
    10    30    31    1
    11    22    21    1
    12    22    23    1
    13    23    24    1
    14    24    25    1
    15    25    26    1
    16    26    27    1
    17     4     5   ar
    18     5     6   ar
    19     6     7   ar
    20     7    10    1
    21    10    11   ar
    22    11    12   ar
    23    12    13   ar
    24    13    14   ar
    25    14    15   ar
    26     7     8   ar
    27     8     9   ar
    28     9     1   ar
    29    27    22    1
    30     9     5   ar
    31    15    10   ar
    32    16    19    1
    33    16    20    1
    34    31    32    1
    35    26    28    1
@<TRIPOS>MOLECULE
*****
 32 35 0 0 0
SMALL
GASTEIGER

@<TRIPOS>ATOM
      1 C         140.4122  144.4914  162.1283 C.ar    1  UNL1        0.0783
      2 C         141.2679  144.4219  160.8984 C.ar    1  UNL1        0.1053
      3 N         142.3953  143.4353  160.8238 N.ar    1  UNL1       -0.2290
      4 C         142.6670  142.5181  161.9793 C.ar    1  UNL1        0.1322
      5 C         141.8112  142.5876  163.2092 C.ar    1  UNL1        0.0383
      6 C         141.8389  141.8173  164.4960 C.ar    1  UNL1        0.0098
      7 C         140.7285  142.3278  165.3658 C.ar    1  UNL1        0.0296
      8 S         140.0147  143.4137  164.6166 S.2     1  UNL1       -0.0866
      9 C         140.6838  143.5742  163.2837 C.ar    1  UNL1        0.0380
     10 C         140.3913  141.8384  166.7430 C.ar    1  UNL1        0.0060
     11 C         139.8310  140.4600  166.9329 C.ar    1  UNL1        0.0005
     12 C         139.4938  139.9706  168.3102 C.ar    1  UNL1        0.0000
     13 C         139.7168  140.8597  169.4975 C.ar    1  UNL1        0.0000
     14 C         140.2770  142.2381  169.3077 C.ar    1  UNL1        0.0000
     15 C         140.6142  142.7274  167.9304 C.ar    1  UNL1        0.0005
     16 N         139.5656  146.9474  162.0937 N.am    1  UNL1       -0.3253
     17 C         139.2848  145.4780  162.2028 C.2     1  UNL1        0.2448
     18 O         137.8764  144.9952  162.3865 O.2     1  UNL1       -0.2703
     19 H         138.8257  147.5950  162.1426 H       1  UNL1        0.1453
     20 H         140.4899  147.2643  161.9731 H       1  UNL1        0.1453
     21 N         143.7944  141.5315  161.9047 N.pl3   1  UNL1       -0.2909
     22 C         143.5580  140.1643  161.3349 C.3     1  UNL1        0.0900
     23 C         143.1513  139.0362  162.2360 C.3     1  UNL1        0.0226
     24 C         142.9149  137.6690  161.6662 C.3     1  UNL1        0.0188
     25 C         143.0852  137.4298  160.1952 C.3     1  UNL1        0.0687
     26 N         143.4919  138.5578  159.2941 N.3     1  UNL1       -0.2961
     27 C         143.7283  139.9250  159.8639 C.3     1  UNL1        0.0886
     28 H         142.7574  138.6540  158.5929 H       1  UNL1        0.1233
     29 C         145.1581  141.9122  162.3999 C.3     1  UNL1        0.1238
     30 C         145.5371  141.6521  163.8277 C.3     1  UNL1        0.1585
     31 O         145.4877  140.2561  164.3745 O.3     1  UNL1       -0.3802
     32 H         144.5680  139.9481  164.3919 H       1  UNL1        0.2105
@<TRIPOS>BOND
     1    16    17   am
     2    17    18    2
     3    17     1    1
     4     1     2   ar
     5     2     3   ar
     6     3     4   ar
     7     4    21    1
     8    21    29    1
     9    29    30    1
    10    30    31    1
    11    22    21    1
    12    22    23    1
    13    23    24    1
    14    24    25    1
    15    25    26    1
    16    26    27    1
    17     4     5   ar
    18     5     6   ar
    19     6     7   ar
    20     7    10    1
    21    10    11   ar
    22    11    12   ar
    23    12    13   ar
    24    13    14   ar
    25    14    15   ar
    26     7     8   ar
    27     8     9   ar
    28     9     1   ar
    29    27    22    1
    30     9     5   ar
    31    15    10   ar
    32    16    19    1
    33    16    20    1
    34    31    32    1
    35    26    28    1
@<TRIPOS>MOLECULE
*****
 32 35 0 0 0
SMALL
GASTEIGER

@<TRIPOS>ATOM
      1 C         139.4347  143.4491  163.5958 C.ar    1  UNL1        0.0783
      2 C         138.9361  142.9746  162.2631 C.ar    1  UNL1        0.1053
      3 N         139.0674  141.5292  161.8844 N.ar    1  UNL1       -0.2290
      4 C         139.6973  140.5581  162.8385 C.ar    1  UNL1        0.1322
      5 C         140.1959  141.0326  164.1713 C.ar    1  UNL1        0.0383
      6 C         140.8562  140.3132  165.3099 C.ar    1  UNL1        0.0098
      7 C         141.1329  141.3141  166.3923 C.ar    1  UNL1        0.0296
      8 S         140.6437  142.6520  165.9227 S.2     1  UNL1       -0.0866
      9 C         140.0646  142.4780  164.5499 C.ar    1  UNL1        0.0380
     10 C         141.7845  141.0274  167.7127 C.ar    1  UNL1        0.0060
     11 C         142.7430  142.0166  168.3065 C.ar    1  UNL1        0.0005
     12 C         143.3946  141.7299  169.6269 C.ar    1  UNL1        0.0000
     13 C         143.0876  140.4540  170.3534 C.ar    1  UNL1        0.0000
     14 C         142.1291  139.4648  169.7596 C.ar    1  UNL1        0.0000
     15 C         141.4775  139.7515  168.4392 C.ar    1  UNL1        0.0005
     16 N         139.8849  145.9573  163.0901 N.am    1  UNL1       -0.3253
     17 C         139.3033  144.8945  163.9745 C.2     1  UNL1        0.2448
     18 O         138.5905  145.2772  165.2377 O.2     1  UNL1       -0.2703
     19 H         139.7987  146.9061  163.3386 H       1  UNL1        0.1453
     20 H         140.3527  145.7062  162.2610 H       1  UNL1        0.1453
     21 N         139.8286  139.1126  162.4598 N.pl3   1  UNL1       -0.2909
     22 C         141.0828  138.6212  161.8000 C.3     1  UNL1        0.0900
     23 C         141.1706  138.5651  160.3036 C.3     1  UNL1        0.0226
     24 C         142.4248  138.0737  159.6438 C.3     1  UNL1        0.0188
     25 C         143.5913  137.6383  160.4804 C.3     1  UNL1        0.0687
     26 N         143.5036  137.6944  161.9767 N.3     1  UNL1       -0.2961
     27 C         142.2493  138.1859  162.6365 C.3     1  UNL1        0.0886
     28 H         144.2600  138.3009  162.2935 H       1  UNL1        0.1233
     29 C         138.7057  138.1587  162.7409 C.3     1  UNL1        0.1238
     30 C         137.5578  138.0481  161.7816 C.3     1  UNL1        0.1585
     31 O         137.0038  139.2803  161.1297 O.3     1  UNL1       -0.3802
     32 H         136.5982  139.8480  161.8035 H       1  UNL1        0.2105
@<TRIPOS>BOND
     1    16    17   am
     2    17    18    2
     3    17     1    1
     4     1     2   ar
     5     2     3   ar
     6     3     4   ar
     7     4    21    1
     8    21    29    1
     9    29    30    1
    10    30    31    1
    11    22    21    1
    12    22    23    1
    13    23    24    1
    14    24    25    1
    15    25    26    1
    16    26    27    1
    17     4     5   ar
    18     5     6   ar
    19     6     7   ar
    20     7    10    1
    21    10    11   ar
    22    11    12   ar
    23    12    13   ar
    24    13    14   ar
    25    14    15   ar
    26     7     8   ar
    27     8     9   ar
    28     9     1   ar
    29    27    22    1
    30     9     5   ar
    31    15    10   ar
    32    16    19    1
    33    16    20    1
    34    31    32    1
    35    26    28    1
@<TRIPOS>MOLECULE
*****
 32 35 0 0 0
SMALL
GASTEIGER

@<TRIPOS>ATOM
      1 C         143.5965  142.9918  163.9701 C.ar    1  UNL1        0.0783
      2 C         143.8207  142.6386  162.5296 C.ar    1  UNL1        0.1053
      3 N         143.3144  141.3341  161.9897 N.ar    1  UNL1       -0.2290
      4 C         142.5838  140.3825  162.8903 C.ar    1  UNL1        0.1322
      5 C         142.3596  140.7357  164.3307 C.ar    1  UNL1        0.0383
      6 C         141.6788  140.0040  165.4493 C.ar    1  UNL1        0.0098
      7 C         141.7645  140.8565  166.6805 C.ar    1  UNL1        0.0296
      8 S         142.4982  142.1150  166.3229 S.2     1  UNL1       -0.0866
      9 C         142.8660  142.0404  164.8706 C.ar    1  UNL1        0.0380
     10 C         141.2133  140.5111  168.0322 C.ar    1  UNL1        0.0060
     11 C         142.0607  139.7644  169.0193 C.ar    1  UNL1        0.0005
     12 C         141.5094  139.4191  170.3709 C.ar    1  UNL1        0.0000
     13 C         140.1107  139.8203  170.7354 C.ar    1  UNL1        0.0000
     14 C         139.2633  140.5669  169.7483 C.ar    1  UNL1        0.0000
     15 C         139.8147  140.9123  168.3966 C.ar    1  UNL1        0.0005
     16 N         143.6941  145.5858  163.8616 N.am    1  UNL1       -0.3253
     17 C         144.1029  144.2964  164.5100 C.2     1  UNL1        0.2448
     18 O         145.0182  144.3117  165.6984 O.2     1  UNL1       -0.2703
     19 H         144.0265  146.4420  164.2159 H       1  UNL1        0.1453
     20 H         143.0935  145.5757  163.0816 H       1  UNL1        0.1453
     21 N         142.0774  139.0779  162.3502 N.pl3   1  UNL1       -0.2909
     22 C         140.6075  138.8781  162.1281 C.3     1  UNL1        0.0900
     23 C         139.8315  139.8667  161.3092 C.3     1  UNL1        0.0226
     24 C         138.3616  139.6669  161.0871 C.3     1  UNL1        0.0188
     25 C         137.6676  138.4785  161.6838 C.3     1  UNL1        0.0687
     26 N         138.4435  137.4899  162.5027 N.3     1  UNL1       -0.2961
     27 C         139.9134  137.6897  162.7249 C.3     1  UNL1        0.0886
     28 H         138.3348  136.5826  162.0497 H       1  UNL1        0.1233
     29 C         143.0409  137.9731  162.0324 C.3     1  UNL1        0.1238
     30 C         143.6079  137.8473  160.6494 C.3     1  UNL1        0.1585
     31 O         144.2162  139.0421  159.9766 O.3     1  UNL1       -0.3802
     32 H         143.5277  139.7048  159.8101 H       1  UNL1        0.2105
@<TRIPOS>BOND
     1    16    17   am
     2    17    18    2
     3    17     1    1
     4     1     2   ar
     5     2     3   ar
     6     3     4   ar
     7     4    21    1
     8    21    29    1
     9    29    30    1
    10    30    31    1
    11    22    21    1
    12    22    23    1
    13    23    24    1
    14    24    25    1
    15    25    26    1
    16    26    27    1
    17     4     5   ar
    18     5     6   ar
    19     6     7   ar
    20     7    10    1
    21    10    11   ar
    22    11    12   ar
    23    12    13   ar
    24    13    14   ar
    25    14    15   ar
    26     7     8   ar
    27     8     9   ar
    28     9     1   ar
    29    27    22    1
    30     9     5   ar
    31    15    10   ar
    32    16    19    1
    33    16    20    1
    34    31    32    1
    35    26    28    1
@<TRIPOS>MOLECULE
*****
 32 35 0 0 0
SMALL
GASTEIGER

@<TRIPOS>ATOM
      1 C         143.7158  143.1946  164.0985 C.ar    1  UNL1        0.0783
      2 C         144.3933  143.2765  165.4343 C.ar    1  UNL1        0.1053
      3 N         143.8688  142.4793  166.5914 N.ar    1  UNL1       -0.2290
      4 C         142.6666  141.6000  166.4129 C.ar    1  UNL1        0.1322
      5 C         141.9891  141.5180  165.0771 C.ar    1  UNL1        0.0383
      6 C         140.7950  140.7438  164.6033 C.ar    1  UNL1        0.0098
      7 C         140.5815  141.0627  163.1532 C.ar    1  UNL1        0.0296
      8 S         141.6438  142.0339  162.7308 S.2     1  UNL1       -0.0866
      9 C         142.5137  142.3153  163.9199 C.ar    1  UNL1        0.0380
     10 C         139.4963  140.5078  162.2789 C.ar    1  UNL1        0.0060
     11 C         139.1277  141.2085  161.0049 C.ar    1  UNL1        0.0005
     12 C         138.0425  140.6535  160.1306 C.ar    1  UNL1        0.0000
     13 C         137.3259  139.3978  160.5303 C.ar    1  UNL1        0.0000
     14 C         137.6946  138.6970  161.8042 C.ar    1  UNL1        0.0000
     15 C         138.7798  139.2520  162.6785 C.ar    1  UNL1        0.0005
     16 N         145.0467  143.3185  161.8706 N.am    1  UNL1       -0.3253
     17 C         144.2404  143.9919  162.9413 C.2     1  UNL1        0.2448
     18 O         143.9587  145.4628  162.8548 O.2     1  UNL1       -0.2703
     19 H         145.3910  143.8418  161.1111 H       1  UNL1        0.1453
     20 H         145.2316  142.3532  161.9274 H       1  UNL1        0.1453
     21 N         142.1421  140.8026  167.5702 N.pl3   1  UNL1       -0.2909
     22 C         141.3141  141.4710  168.6274 C.3     1  UNL1        0.0900
     23 C         141.1577  142.9628  168.6259 C.3     1  UNL1        0.0226
     24 C         140.3298  143.6312  169.6831 C.3     1  UNL1        0.0188
     25 C         139.6581  142.8077  170.7418 C.3     1  UNL1        0.0687
     26 N         139.8145  141.3159  170.7433 N.3     1  UNL1       -0.2961
     27 C         140.6425  140.6476  169.6861 C.3     1  UNL1        0.0886
     28 H         138.8763  140.9214  170.6757 H       1  UNL1        0.1233
     29 C         142.4455  139.3371  167.6701 C.3     1  UNL1        0.1238
     30 C         143.3468  138.6874  166.6623 C.3     1  UNL1        0.1585
     31 O         144.3048  137.6166  167.0931 O.3     1  UNL1       -0.3802
     32 H         144.9718  137.9985  167.6849 H       1  UNL1        0.2105
@<TRIPOS>BOND
     1    16    17   am
     2    17    18    2
     3    17     1    1
     4     1     2   ar
     5     2     3   ar
     6     3     4   ar
     7     4    21    1
     8    21    29    1
     9    29    30    1
    10    30    31    1
    11    22    21    1
    12    22    23    1
    13    23    24    1
    14    24    25    1
    15    25    26    1
    16    26    27    1
    17     4     5   ar
    18     5     6   ar
    19     6     7   ar
    20     7    10    1
    21    10    11   ar
    22    11    12   ar
    23    12    13   ar
    24    13    14   ar
    25    14    15   ar
    26     7     8   ar
    27     8     9   ar
    28     9     1   ar
    29    27    22    1
    30     9     5   ar
    31    15    10   ar
    32    16    19    1
    33    16    20    1
    34    31    32    1
    35    26    28    1
