@<TRIPOS>MOLECULE
*****
 29 32 0 0 0
SMALL
GASTEIGER

@<TRIPOS>ATOM
      1 C         139.0970  144.6658  164.8937 C.3     1  UNL1        0.0282
      2 C         139.6571  144.0674  163.6373 C.3     1  UNL1        0.1189
      3 C         139.6954  144.8752  162.3740 C.ar    1  UNL1        0.1138
      4 N         139.2569  146.2760  162.0648 N.ar    1  UNL1       -0.1315
      5 N         139.5460  146.5432  160.6174 N.ar    1  UNL1       -0.0576
      6 N         140.1631  145.3077  160.0321 N.ar    1  UNL1       -0.1813
      7 C         140.2555  144.2768  161.1178 C.ar    1  UNL1        0.0837
      8 C         140.7772  142.8705  161.1248 C.3     1  UNL1        0.0688
      9 C         140.7389  142.0626  162.3880 C.3     1  UNL1        0.1004
     10 N         140.1789  142.6610  163.6442 N.am    1  UNL1       -0.2719
     11 C         140.1405  141.8531  164.9076 C.2     1  UNL1        0.2501
     12 O         139.5805  142.4515  166.1639 O.2     1  UNL1       -0.2699
     13 C         140.6623  140.4468  164.9146 C.ar    1  UNL1        0.0641
     14 C         139.7544  139.3082  164.5549 C.ar    1  UNL1        0.0054
     15 C         140.2762  137.9018  164.5620 C.ar    1  UNL1        0.0001
     16 C         141.7057  137.6341  164.9286 C.ar    1  UNL1        0.0047
     17 C         142.6137  138.7728  165.2883 C.ar    1  UNL1        0.0821
     18 C         142.0920  140.1791  165.2813 C.ar    1  UNL1        0.0659
     19 CL        142.9999  141.3176  165.6409 Cl      1  UNL1       -0.0822
     20 C         144.0433  138.5050  165.6549 C.3     1  UNL1        0.4194
     21 F         145.4730  138.2372  166.0216 F       1  UNL1       -0.1658
     22 F         144.4670  138.8559  164.2594 F       1  UNL1       -0.1658
     23 F         143.6197  138.1541  167.0504 F       1  UNL1       -0.1658
     24 C         140.6095  145.1336  158.6107 C.ar    1  UNL1        0.2541
     25 N         139.7888  144.3108  157.6623 N.ar    1  UNL1       -0.2084
     26 C         140.2352  144.1367  156.2408 C.ar    1  UNL1        0.1037
     27 C         141.5021  144.7854  155.7678 C.ar    1  UNL1        0.0415
     28 C         142.3229  145.6082  156.7163 C.ar    1  UNL1        0.1037
     29 N         141.8766  145.7823  158.1376 N.ar    1  UNL1       -0.2084
@<TRIPOS>BOND
     1     2     1    1
     2     2     3    1
     3     3     4   ar
     4     4     5   ar
     5     5     6   ar
     6     6    24    1
     7    24    25   ar
     8    25    26   ar
     9    26    27   ar
    10    27    28   ar
    11    28    29   ar
    12     6     7   ar
    13     7     8    1
    14     8     9    1
    15     9    10    1
    16    10    11   am
    17    11    12    2
    18    11    13    1
    19    13    14   ar
    20    14    15   ar
    21    15    16   ar
    22    16    17   ar
    23    17    20    1
    24    20    21    1
    25    20    22    1
    26    20    23    1
    27    17    18   ar
    28    18    19    1
    29    10     2    1
    30    18    13   ar
    31     7     3   ar
    32    29    24   ar
@<TRIPOS>MOLECULE
*****
 29 32 0 0 0
SMALL
GASTEIGER

@<TRIPOS>ATOM
      1 C         139.5372  145.5818  162.6654 C.3     1  UNL1        0.0282
      2 C         140.2218  144.3278  162.2083 C.3     1  UNL1        0.1189
      3 C         141.0402  144.3356  160.9512 C.ar    1  UNL1        0.1138
      4 N         141.3516  145.4203  159.9630 N.ar    1  UNL1       -0.1315
      5 N         142.2286  144.8367  158.8952 N.ar    1  UNL1       -0.0576
      6 N         142.4592  143.3913  159.2234 N.ar    1  UNL1       -0.1813
      7 C         141.7248  143.0816  160.4942 C.ar    1  UNL1        0.0837
      8 C         141.5909  141.8198  161.2941 C.3     1  UNL1        0.0688
      9 C         140.7725  141.8120  162.5511 C.3     1  UNL1        0.1004
     10 N         140.0880  143.0659  163.0082 N.am    1  UNL1       -0.2719
     11 C         139.2695  143.0581  164.2653 C.2     1  UNL1        0.2501
     12 O         138.5850  144.3121  164.7224 O.2     1  UNL1       -0.2699
     13 C         139.1357  141.7963  165.0652 C.ar    1  UNL1        0.0641
     14 C         138.1915  140.7205  164.6166 C.ar    1  UNL1        0.0054
     15 C         138.0577  139.4587  165.4166 C.ar    1  UNL1        0.0001
     16 C         138.8679  139.2727  166.6651 C.ar    1  UNL1        0.0047
     17 C         139.8121  140.3485  167.1137 C.ar    1  UNL1        0.0821
     18 C         139.9460  141.6103  166.3138 C.ar    1  UNL1        0.0659
     19 CL        140.8902  142.6861  166.7623 Cl      1  UNL1       -0.0822
     20 C         140.6224  140.1625  168.3622 C.3     1  UNL1        0.4194
     21 F         141.4327  139.9764  169.6107 F       1  UNL1       -0.1658
     22 F         141.7231  139.5401  167.5552 F       1  UNL1       -0.1658
     23 F         139.5218  140.7848  169.1693 F       1  UNL1       -0.1658
     24 C         143.2802  142.4253  158.4217 C.ar    1  UNL1        0.2541
     25 N         144.6906  142.7710  158.0462 N.ar    1  UNL1       -0.2084
     26 C         145.5117  141.8050  157.2445 C.ar    1  UNL1        0.1037
     27 C         144.9222  140.4933  156.8182 C.ar    1  UNL1        0.0415
     28 C         143.5116  140.1475  157.1937 C.ar    1  UNL1        0.1037
     29 N         142.6907  141.1135  157.9954 N.ar    1  UNL1       -0.2084
@<TRIPOS>BOND
     1     2     1    1
     2     2     3    1
     3     3     4   ar
     4     4     5   ar
     5     5     6   ar
     6     6    24    1
     7    24    25   ar
     8    25    26   ar
     9    26    27   ar
    10    27    28   ar
    11    28    29   ar
    12     6     7   ar
    13     7     8    1
    14     8     9    1
    15     9    10    1
    16    10    11   am
    17    11    12    2
    18    11    13    1
    19    13    14   ar
    20    14    15   ar
    21    15    16   ar
    22    16    17   ar
    23    17    20    1
    24    20    21    1
    25    20    22    1
    26    20    23    1
    27    17    18   ar
    28    18    19    1
    29    10     2    1
    30    18    13   ar
    31     7     3   ar
    32    29    24   ar
@<TRIPOS>MOLECULE
*****
 29 32 0 0 0
SMALL
GASTEIGER

@<TRIPOS>ATOM
      1 C         140.0373  145.6977  162.5875 C.3     1  UNL1        0.0282
      2 C         140.8184  144.4895  162.1629 C.3     1  UNL1        0.1189
      3 C         141.4502  144.4444  160.8032 C.ar    1  UNL1        0.1138
      4 N         141.4736  145.4318  159.6742 N.ar    1  UNL1       -0.1315
      5 N         142.2692  144.8338  158.5520 N.ar    1  UNL1       -0.0576
      6 N         142.7375  143.4769  158.9874 N.ar    1  UNL1       -0.1813
      7 C         142.2313  143.2363  160.3788 C.ar    1  UNL1        0.0837
      8 C         142.3806  142.0731  161.3140 C.3     1  UNL1        0.0688
      9 C         141.7489  142.1182  162.6738 C.3     1  UNL1        0.1004
     10 N         140.9679  143.3263  163.0982 N.am    1  UNL1       -0.2719
     11 C         140.3361  143.3713  164.4580 C.2     1  UNL1        0.2501
     12 O         139.5550  144.5795  164.8825 O.2     1  UNL1       -0.2699
     13 C         140.4855  142.2081  165.3933 C.ar    1  UNL1        0.0641
     14 C         141.7311  142.0627  166.2163 C.ar    1  UNL1        0.0054
     15 C         141.8804  140.8995  167.1516 C.ar    1  UNL1        0.0001
     16 C         140.7843  139.8818  167.2639 C.ar    1  UNL1        0.0047
     17 C         139.5386  140.0273  166.4408 C.ar    1  UNL1        0.0821
     18 C         139.3892  141.1905  165.5055 C.ar    1  UNL1        0.0659
     19 CL        138.1437  141.3359  164.6826 Cl      1  UNL1       -0.0822
     20 C         138.4424  139.0096  166.5531 C.3     1  UNL1        0.4194
     21 F         137.3462  137.9919  166.6654 F       1  UNL1       -0.1658
     22 F         138.1248  139.5040  167.9332 F       1  UNL1       -0.1658
     23 F         138.7601  138.5152  165.1730 F       1  UNL1       -0.1658
     24 C         143.5664  142.5273  158.1742 C.ar    1  UNL1        0.2541
     25 N         142.9781  141.2289  157.7074 N.ar    1  UNL1       -0.2084
     26 C         143.8070  140.2792  156.8942 C.ar    1  UNL1        0.1037
     27 C         145.2241  140.6282  156.5478 C.ar    1  UNL1        0.0415
     28 C         145.8123  141.9267  157.0147 C.ar    1  UNL1        0.1037
     29 N         144.9835  142.8763  157.8278 N.ar    1  UNL1       -0.2084
@<TRIPOS>BOND
     1     2     1    1
     2     2     3    1
     3     3     4   ar
     4     4     5   ar
     5     5     6   ar
     6     6    24    1
     7    24    25   ar
     8    25    26   ar
     9    26    27   ar
    10    27    28   ar
    11    28    29   ar
    12     6     7   ar
    13     7     8    1
    14     8     9    1
    15     9    10    1
    16    10    11   am
    17    11    12    2
    18    11    13    1
    19    13    14   ar
    20    14    15   ar
    21    15    16   ar
    22    16    17   ar
    23    17    20    1
    24    20    21    1
    25    20    22    1
    26    20    23    1
    27    17    18   ar
    28    18    19    1
    29    10     2    1
    30    18    13   ar
    31     7     3   ar
    32    29    24   ar
@<TRIPOS>MOLECULE
*****
 29 32 0 0 0
SMALL
GASTEIGER

@<TRIPOS>ATOM
      1 C         137.9897  138.1227  161.9588 C.3     1  UNL1        0.0282
      2 C         138.9573  139.2656  161.8715 C.3     1  UNL1        0.1189
      3 C         138.9449  140.1690  160.6741 C.ar    1  UNL1        0.1138
      4 N         138.1010  140.1803  159.4340 N.ar    1  UNL1       -0.1315
      5 N         138.5470  141.3302  158.5804 N.ar    1  UNL1       -0.0576
      6 N         139.6666  142.0296  159.2928 N.ar    1  UNL1       -0.1813
      7 C         139.9125  141.3119  160.5868 C.ar    1  UNL1        0.0837
      8 C         140.8924  141.5514  161.6969 C.3     1  UNL1        0.0688
      9 C         140.9048  140.6481  162.8943 C.3     1  UNL1        0.1004
     10 N         139.9373  139.5052  162.9816 N.am    1  UNL1       -0.2719
     11 C         139.9497  138.6018  164.1791 C.2     1  UNL1        0.2501
     12 O         138.9821  137.4589  164.2663 O.2     1  UNL1       -0.2699
     13 C         140.9296  138.8413  165.2892 C.ar    1  UNL1        0.0641
     14 C         142.3028  138.2419  165.2197 C.ar    1  UNL1        0.0054
     15 C         143.2828  138.4815  166.3298 C.ar    1  UNL1        0.0001
     16 C         142.8894  139.3204  167.5094 C.ar    1  UNL1        0.0047
     17 C         141.5161  139.9198  167.5789 C.ar    1  UNL1        0.0821
     18 C         140.5362  139.6803  166.4688 C.ar    1  UNL1        0.0659
     19 CL        139.1629  140.2797  166.5383 Cl      1  UNL1       -0.0822
     20 C         141.1228  140.7588  168.7585 C.3     1  UNL1        0.4194
     21 F         140.7295  141.5978  169.9381 F       1  UNL1       -0.1658
     22 F         141.5946  141.9887  168.0410 F       1  UNL1       -0.1658
     23 F         140.6510  139.5289  169.4759 F       1  UNL1       -0.1658
     24 C         140.4097  143.2350  158.7980 C.ar    1  UNL1        0.2541
     25 N         141.8228  143.0983  158.3139 N.ar    1  UNL1       -0.2084
     26 C         142.5660  144.3037  157.8191 C.ar    1  UNL1        0.1037
     27 C         141.8961  145.6457  157.8085 C.ar    1  UNL1        0.0415
     28 C         140.4829  145.7823  158.2927 C.ar    1  UNL1        0.1037
     29 N         139.7397  144.5770  158.7874 N.ar    1  UNL1       -0.2084
@<TRIPOS>BOND
     1     2     1    1
     2     2     3    1
     3     3     4   ar
     4     4     5   ar
     5     5     6   ar
     6     6    24    1
     7    24    25   ar
     8    25    26   ar
     9    26    27   ar
    10    27    28   ar
    11    28    29   ar
    12     6     7   ar
    13     7     8    1
    14     8     9    1
    15     9    10    1
    16    10    11   am
    17    11    12    2
    18    11    13    1
    19    13    14   ar
    20    14    15   ar
    21    15    16   ar
    22    16    17   ar
    23    17    20    1
    24    20    21    1
    25    20    22    1
    26    20    23    1
    27    17    18   ar
    28    18    19    1
    29    10     2    1
    30    18    13   ar
    31     7     3   ar
    32    29    24   ar
@<TRIPOS>MOLECULE
*****
 29 32 0 0 0
SMALL
GASTEIGER

@<TRIPOS>ATOM
      1 C         143.7246  137.8880  160.8766 C.3     1  UNL1        0.0282
      2 C         142.3417  138.1222  160.3450 C.3     1  UNL1        0.1189
      3 C         142.0755  138.0133  158.8728 C.ar    1  UNL1        0.1138
      4 N         142.9701  137.6928  157.7122 N.ar    1  UNL1       -0.1315
      5 N         142.1399  137.7289  156.4634 N.ar    1  UNL1       -0.0576
      6 N         140.7323  138.0718  156.8522 N.ar    1  UNL1       -0.1813
      7 C         140.6925  138.2476  158.3413 C.ar    1  UNL1        0.0837
      8 C         139.5757  138.5907  159.2820 C.3     1  UNL1        0.0688
      9 C         139.8418  138.6996  160.7542 C.3     1  UNL1        0.1004
     10 N         141.2247  138.4654  161.2857 N.am    1  UNL1       -0.2719
     11 C         141.4908  138.5742  162.7579 C.2     1  UNL1        0.2501
     12 O         142.8738  138.3400  163.2894 O.2     1  UNL1       -0.2699
     13 C         140.3740  138.9174  163.6986 C.ar    1  UNL1        0.0641
     14 C         139.7529  137.8478  164.5473 C.ar    1  UNL1        0.0054
     15 C         138.6360  138.1910  165.4880 C.ar    1  UNL1        0.0001
     16 C         138.1402  139.6036  165.5799 C.ar    1  UNL1        0.0047
     17 C         138.7613  140.6732  164.7312 C.ar    1  UNL1        0.0821
     18 C         139.8782  140.3301  163.7905 C.ar    1  UNL1        0.0659
     19 CL        140.4992  141.3997  162.9418 Cl      1  UNL1       -0.0822
     20 C         138.2655  142.0860  164.8232 C.3     1  UNL1        0.4194
     21 F         137.7697  143.4987  164.9151 F       1  UNL1       -0.1658
     22 F         139.2949  142.3788  165.8741 F       1  UNL1       -0.1658
     23 F         137.2361  141.7931  163.7722 F       1  UNL1       -0.1658
     24 C         139.5689  138.2139  155.9162 C.ar    1  UNL1        0.2541
     25 N         139.3114  137.1651  154.8752 N.ar    1  UNL1       -0.2084
     26 C         138.1478  137.3072  153.9391 C.ar    1  UNL1        0.1037
     27 C         137.2420  138.4980  154.0441 C.ar    1  UNL1        0.0415
     28 C         137.4995  139.5469  155.0851 C.ar    1  UNL1        0.1037
     29 N         138.6629  139.4048  156.0212 N.ar    1  UNL1       -0.2084
@<TRIPOS>BOND
     1     2     1    1
     2     2     3    1
     3     3     4   ar
     4     4     5   ar
     5     5     6   ar
     6     6    24    1
     7    24    25   ar
     8    25    26   ar
     9    26    27   ar
    10    27    28   ar
    11    28    29   ar
    12     6     7   ar
    13     7     8    1
    14     8     9    1
    15     9    10    1
    16    10    11   am
    17    11    12    2
    18    11    13    1
    19    13    14   ar
    20    14    15   ar
    21    15    16   ar
    22    16    17   ar
    23    17    20    1
    24    20    21    1
    25    20    22    1
    26    20    23    1
    27    17    18   ar
    28    18    19    1
    29    10     2    1
    30    18    13   ar
    31     7     3   ar
    32    29    24   ar
@<TRIPOS>MOLECULE
*****
 29 32 0 0 0
SMALL
GASTEIGER

@<TRIPOS>ATOM
      1 C         138.8801  138.6205  164.0571 C.3     1  UNL1        0.0282
      2 C         139.3436  139.4150  162.8722 C.3     1  UNL1        0.1189
      3 C         138.4724  139.5259  161.6562 C.ar    1  UNL1        0.1138
      4 N         137.1179  138.9658  161.3375 N.ar    1  UNL1       -0.1315
      5 N         136.7443  139.4142  159.9557 N.ar    1  UNL1       -0.0576
      6 N         137.8679  140.2514  159.4204 N.ar    1  UNL1       -0.1813
      7 C         138.9360  140.3204  160.4713 C.ar    1  UNL1        0.0837
      8 C         140.2707  141.0041  160.5025 C.3     1  UNL1        0.0688
      9 C         141.1419  140.8933  161.7185 C.3     1  UNL1        0.1004
     10 N         140.6784  140.0988  162.9033 N.am    1  UNL1       -0.2719
     11 C         141.5497  139.9880  164.1194 C.2     1  UNL1        0.2501
     12 O         141.0861  139.1934  165.3042 O.2     1  UNL1       -0.2699
     13 C         142.8844  140.6717  164.1506 C.ar    1  UNL1        0.0641
     14 C         144.1309  139.8980  163.8379 C.ar    1  UNL1        0.0054
     15 C         145.4656  140.5818  163.8691 C.ar    1  UNL1        0.0001
     16 C         145.5539  142.0391  164.2130 C.ar    1  UNL1        0.0047
     17 C         144.3074  142.8128  164.5257 C.ar    1  UNL1        0.0821
     18 C         142.9726  142.1291  164.4945 C.ar    1  UNL1        0.0659
     19 CL        141.7262  142.9027  164.8072 Cl      1  UNL1       -0.0822
     20 C         144.3957  144.2702  164.8696 C.3     1  UNL1        0.4194
     21 F         144.4840  145.7275  165.2135 F       1  UNL1       -0.1658
     22 F         144.8376  143.9156  166.2585 F       1  UNL1       -0.1658
     23 F         143.9538  144.6247  163.4807 F       1  UNL1       -0.1658
     24 C         137.9152  140.9048  158.0710 C.ar    1  UNL1        0.2541
     25 N         137.8840  140.0641  156.8292 N.ar    1  UNL1       -0.2084
     26 C         137.9313  140.7175  155.4797 C.ar    1  UNL1        0.1037
     27 C         138.0097  142.2115  155.3722 C.ar    1  UNL1        0.0415
     28 C         138.0408  143.0522  156.6142 C.ar    1  UNL1        0.1037
     29 N         137.9936  142.3989  157.9635 N.ar    1  UNL1       -0.2084
@<TRIPOS>BOND
     1     2     1    1
     2     2     3    1
     3     3     4   ar
     4     4     5   ar
     5     5     6   ar
     6     6    24    1
     7    24    25   ar
     8    25    26   ar
     9    26    27   ar
    10    27    28   ar
    11    28    29   ar
    12     6     7   ar
    13     7     8    1
    14     8     9    1
    15     9    10    1
    16    10    11   am
    17    11    12    2
    18    11    13    1
    19    13    14   ar
    20    14    15   ar
    21    15    16   ar
    22    16    17   ar
    23    17    20    1
    24    20    21    1
    25    20    22    1
    26    20    23    1
    27    17    18   ar
    28    18    19    1
    29    10     2    1
    30    18    13   ar
    31     7     3   ar
    32    29    24   ar
@<TRIPOS>MOLECULE
*****
 29 32 0 0 0
SMALL
GASTEIGER

@<TRIPOS>ATOM
      1 C         143.6213  141.7946  159.5013 C.3     1  UNL1        0.0282
      2 C         143.3001  140.3331  159.6059 C.3     1  UNL1        0.1189
      3 C         143.2354  139.4888  158.3677 C.ar    1  UNL1        0.1138
      4 N         143.4401  139.8159  156.9182 N.ar    1  UNL1       -0.1315
      5 N         143.2453  138.5565  156.1270 N.ar    1  UNL1       -0.0576
      6 N         142.9204  137.4511  157.0875 N.ar    1  UNL1       -0.1813
      7 C         142.9142  138.0274  158.4724 C.ar    1  UNL1        0.0837
      8 C         142.6577  137.4102  159.8152 C.3     1  UNL1        0.0688
      9 C         142.7223  138.2544  161.0534 C.3     1  UNL1        0.1004
     10 N         143.0435  139.7158  160.9487 N.am    1  UNL1       -0.2719
     11 C         143.1081  140.5601  162.1870 C.2     1  UNL1        0.2501
     12 O         143.4293  142.0215  162.0823 O.2     1  UNL1       -0.2699
     13 C         142.8516  139.9429  163.5298 C.ar    1  UNL1        0.0641
     14 C         143.9991  139.4482  164.3595 C.ar    1  UNL1        0.0054
     15 C         143.7425  138.8310  165.7023 C.ar    1  UNL1        0.0001
     16 C         142.3384  138.7084  166.2155 C.ar    1  UNL1        0.0047
     17 C         141.1908  139.2031  165.3858 C.ar    1  UNL1        0.0821
     18 C         141.4473  139.8203  164.0429 C.ar    1  UNL1        0.0659
     19 CL        140.2998  140.3150  163.2133 Cl      1  UNL1       -0.0822
     20 C         139.7866  139.0805  165.8989 C.3     1  UNL1        0.4194
     21 F         138.3825  138.9580  166.4121 F       1  UNL1       -0.1658
     22 F         139.6689  137.7312  165.2545 F       1  UNL1       -0.1658
     23 F         139.9044  140.4299  166.5434 F       1  UNL1       -0.1658
     24 C         142.6491  136.0207  156.7265 C.ar    1  UNL1        0.2541
     25 N         143.4277  134.9205  157.3849 N.ar    1  UNL1       -0.2084
     26 C         143.1565  133.4900  157.0239 C.ar    1  UNL1        0.1037
     27 C         142.1068  133.1598  156.0046 C.ar    1  UNL1        0.0415
     28 C         141.3282  134.2601  155.3463 C.ar    1  UNL1        0.1037
     29 N         141.5994  135.6905  155.7072 N.ar    1  UNL1       -0.2084
@<TRIPOS>BOND
     1     2     1    1
     2     2     3    1
     3     3     4   ar
     4     4     5   ar
     5     5     6   ar
     6     6    24    1
     7    24    25   ar
     8    25    26   ar
     9    26    27   ar
    10    27    28   ar
    11    28    29   ar
    12     6     7   ar
    13     7     8    1
    14     8     9    1
    15     9    10    1
    16    10    11   am
    17    11    12    2
    18    11    13    1
    19    13    14   ar
    20    14    15   ar
    21    15    16   ar
    22    16    17   ar
    23    17    20    1
    24    20    21    1
    25    20    22    1
    26    20    23    1
    27    17    18   ar
    28    18    19    1
    29    10     2    1
    30    18    13   ar
    31     7     3   ar
    32    29    24   ar
@<TRIPOS>MOLECULE
*****
 29 32 0 0 0
SMALL
GASTEIGER

@<TRIPOS>ATOM
      1 C         138.4688  138.1068  162.8776 C.3     1  UNL1        0.0282
      2 C         139.2450  139.0530  163.7452 C.3     1  UNL1        0.1189
      3 C         139.0051  139.0815  165.2256 C.ar    1  UNL1        0.1138
      4 N         138.0757  138.3009  166.1070 N.ar    1  UNL1       -0.1315
      5 N         138.2775  138.7646  167.5191 N.ar    1  UNL1       -0.0576
      6 N         139.3316  139.8318  167.5105 N.ar    1  UNL1       -0.1813
      7 C         139.7813  140.0276  166.0930 C.ar    1  UNL1        0.0837
      8 C         140.7973  140.9452  165.4800 C.3     1  UNL1        0.0688
      9 C         141.0371  140.9167  163.9996 C.3     1  UNL1        0.1004
     10 N         140.2610  139.9706  163.1322 N.am    1  UNL1       -0.2719
     11 C         140.5009  139.9421  161.6517 C.2     1  UNL1        0.2501
     12 O         139.7247  138.9960  160.7843 O.2     1  UNL1       -0.2699
     13 C         141.5168  140.8597  161.0387 C.ar    1  UNL1        0.0641
     14 C         142.9532  140.4364  160.9505 C.ar    1  UNL1        0.0054
     15 C         143.9692  141.3541  160.3375 C.ar    1  UNL1        0.0001
     16 C         143.5488  142.6949  159.8127 C.ar    1  UNL1        0.0047
     17 C         142.1124  143.1182  159.9009 C.ar    1  UNL1        0.0821
     18 C         141.0964  142.2006  160.5139 C.ar    1  UNL1        0.0659
     19 CL        139.6601  142.6239  160.6021 Cl      1  UNL1       -0.0822
     20 C         141.6921  144.4590  159.3761 C.3     1  UNL1        0.4194
     21 F         141.2717  145.7999  158.8513 F       1  UNL1       -0.1658
     22 F         141.8030  145.0343  160.7570 F       1  UNL1       -0.1658
     23 F         141.5811  143.8838  157.9953 F       1  UNL1       -0.1658
     24 C         139.8456  140.5730  168.7090 C.ar    1  UNL1        0.2541
     25 N         140.1737  139.8269  169.9683 N.ar    1  UNL1       -0.2084
     26 C         140.6878  140.5681  171.1669 C.ar    1  UNL1        0.1037
     27 C         140.8738  142.0552  171.1061 C.ar    1  UNL1        0.0415
     28 C         140.5457  142.8012  169.8467 C.ar    1  UNL1        0.1037
     29 N         140.0317  142.0601  168.6482 N.ar    1  UNL1       -0.2084
@<TRIPOS>BOND
     1     2     1    1
     2     2     3    1
     3     3     4   ar
     4     4     5   ar
     5     5     6   ar
     6     6    24    1
     7    24    25   ar
     8    25    26   ar
     9    26    27   ar
    10    27    28   ar
    11    28    29   ar
    12     6     7   ar
    13     7     8    1
    14     8     9    1
    15     9    10    1
    16    10    11   am
    17    11    12    2
    18    11    13    1
    19    13    14   ar
    20    14    15   ar
    21    15    16   ar
    22    16    17   ar
    23    17    20    1
    24    20    21    1
    25    20    22    1
    26    20    23    1
    27    17    18   ar
    28    18    19    1
    29    10     2    1
    30    18    13   ar
    31     7     3   ar
    32    29    24   ar
@<TRIPOS>MOLECULE
*****
 29 32 0 0 0
SMALL
GASTEIGER

@<TRIPOS>ATOM
      1 C         141.7987  145.0888  157.8901 C.3     1  UNL1        0.0282
      2 C         140.5781  144.2302  158.0414 C.3     1  UNL1        0.1189
      3 C         139.7281  143.9175  156.8457 C.ar    1  UNL1        0.1138
      4 N         139.8421  144.3110  155.4027 N.ar    1  UNL1       -0.1315
      5 N         138.6919  143.6955  154.6622 N.ar    1  UNL1       -0.0576
      6 N         137.8671  142.9217  155.6476 N.ar    1  UNL1       -0.1813
      7 C         138.5075  143.0589  156.9970 C.ar    1  UNL1        0.0837
      8 C         138.1368  142.5130  158.3441 C.3     1  UNL1        0.0688
      9 C         138.9868  142.8257  159.5398 C.3     1  UNL1        0.1004
     10 N         140.2073  143.6842  159.3885 N.am    1  UNL1       -0.2719
     11 C         141.0574  143.9969  160.5843 C.2     1  UNL1        0.2501
     12 O         142.2780  144.8555  160.4329 O.2     1  UNL1       -0.2699
     13 C         140.6867  143.4510  161.9313 C.ar    1  UNL1        0.0641
     14 C         141.3265  142.1898  162.4314 C.ar    1  UNL1        0.0054
     15 C         140.9558  141.6439  163.7785 C.ar    1  UNL1        0.0001
     16 C         139.9455  142.3591  164.6255 C.ar    1  UNL1        0.0047
     17 C         139.3056  143.6204  164.1254 C.ar    1  UNL1        0.0821
     18 C         139.6763  144.1663  162.7783 C.ar    1  UNL1        0.0659
     19 CL        139.0364  145.4275  162.2783 Cl      1  UNL1       -0.0822
     20 C         138.2952  144.3356  164.9724 C.3     1  UNL1        0.4194
     21 F         137.2847  145.0509  165.8194 F       1  UNL1       -0.1658
     22 F         139.3558  145.2929  165.4293 F       1  UNL1       -0.1658
     23 F         137.2346  143.3784  164.5155 F       1  UNL1       -0.1658
     24 C         136.6207  142.1468  155.3378 C.ar    1  UNL1        0.2541
     25 N         135.9412  142.3181  154.0115 N.ar    1  UNL1       -0.2084
     26 C         134.6948  141.5432  153.7017 C.ar    1  UNL1        0.1037
     27 C         134.1279  140.5969  154.7181 C.ar    1  UNL1        0.0415
     28 C         134.8074  140.4256  156.0444 C.ar    1  UNL1        0.1037
     29 N         136.0538  141.2005  156.3542 N.ar    1  UNL1       -0.2084
@<TRIPOS>BOND
     1     2     1    1
     2     2     3    1
     3     3     4   ar
     4     4     5   ar
     5     5     6   ar
     6     6    24    1
     7    24    25   ar
     8    25    26   ar
     9    26    27   ar
    10    27    28   ar
    11    28    29   ar
    12     6     7   ar
    13     7     8    1
    14     8     9    1
    15     9    10    1
    16    10    11   am
    17    11    12    2
    18    11    13    1
    19    13    14   ar
    20    14    15   ar
    21    15    16   ar
    22    16    17   ar
    23    17    20    1
    24    20    21    1
    25    20    22    1
    26    20    23    1
    27    17    18   ar
    28    18    19    1
    29    10     2    1
    30    18    13   ar
    31     7     3   ar
    32    29    24   ar
