@<TRIPOS>MOLECULE
*****
 31 34 0 0 0
SMALL
GASTEIGER

@<TRIPOS>ATOM
      1 C         138.8761  139.9736  160.7912 C.ar    1  UNL1        0.0806
      2 C         137.6987  140.1715  161.6995 C.ar    1  UNL1        0.0181
      3 C         137.9127  140.3892  163.1681 C.ar    1  UNL1        0.0223
      4 C         139.3040  140.4091  163.7284 C.ar    1  UNL1        0.1058
      5 N         140.4813  140.2112  162.8202 N.ar    1  UNL1       -0.1482
      6 N         140.2673  139.9935  161.3516 N.ar    1  UNL1       -0.1524
      7 C         139.5180  140.6268  165.1971 C.ar    1  UNL1        0.0531
      8 C         139.0177  139.6159  166.1859 C.ar    1  UNL1        0.0046
      9 C         139.2317  139.8336  167.6545 C.ar    1  UNL1        0.0000
     10 C         139.9460  141.0623  168.1343 C.ar    1  UNL1        0.0025
     11 C         140.4463  142.0732  167.1455 C.ar    1  UNL1        0.0365
     12 C         140.2323  141.8555  165.6769 C.ar    1  UNL1        0.1351
     13 O         140.7326  142.8664  164.6880 O.3     1  UNL1       -0.5055
     14 H         141.1788  143.6339  164.9878 H       1  UNL1        0.2922
     15 C         140.1600  141.2801  169.6029 C.2     1  UNL1        0.0250
     16 C         140.6076  140.2448  170.5917 C.2     1  UNL1        0.1194
     17 N         140.6882  140.8962  171.9405 N.2     1  UNL1       -0.1510
     18 N         140.2903  142.3341  171.7852 N.2     1  UNL1       -0.1695
     19 C         139.9638  142.5713  170.3405 C.3     1  UNL1        0.1771
     20 C         138.6621  139.7559  159.3226 C.3     1  UNL1        0.0477
     21 C         136.6808  143.0698  155.4500 C.3     1  UNL1        0.0158
     22 C         137.2369  142.1717  156.5150 C.3     1  UNL1        0.0419
     23 C         136.0397  141.3702  156.0974 C.3     1  UNL1        0.0158
     24 C         137.3773  140.9954  157.4350 C.3     1  UNL1        0.0149
     25 C         138.5217  140.9323  158.4026 C.3     1  UNL1        0.0085
     26 C         139.5258  142.0457  158.4503 C.3     1  UNL1        0.0149
     27 C         139.3854  143.2221  157.5303 C.3     1  UNL1        0.0419
     28 C         140.6313  143.6151  158.2673 C.3     1  UNL1        0.0158
     29 C         139.6777  144.5349  156.8663 C.3     1  UNL1        0.0158
     30 N         138.2410  143.2851  156.5627 N.3     1  UNL1       -0.3016
     31 H         138.6476  143.3550  155.6299 H       1  UNL1        0.1231
@<TRIPOS>BOND
     1    21    22    1
     2    22    23    1
     3    22    24    1
     4    24    25    1
     5    25    20    1
     6    20     1    1
     7     1     2   ar
     8     2     3   ar
     9     3     4   ar
    10     4     7    1
    11     7     8   ar
    12     8     9   ar
    13     9    10   ar
    14    10    15    1
    15    15    16    2
    16    16    17    1
    17    17    18    2
    18    18    19    1
    19    10    11   ar
    20    11    12   ar
    21    12    13    1
    22     4     5   ar
    23     5     6   ar
    24    25    26    1
    25    26    27    1
    26    27    28    1
    27    27    29    1
    28    27    30    1
    29    30    22    1
    30     6     1   ar
    31    12     7   ar
    32    19    15    1
    33    13    14    1
    34    30    31    1
@<TRIPOS>MOLECULE
*****
 31 34 0 0 0
SMALL
GASTEIGER

@<TRIPOS>ATOM
      1 C         138.8886  139.9745  160.7796 C.ar    1  UNL1        0.0806
      2 C         137.7097  140.1526  161.6899 C.ar    1  UNL1        0.0181
      3 C         137.9226  140.3698  163.1588 C.ar    1  UNL1        0.0223
      4 C         139.3142  140.4088  163.7173 C.ar    1  UNL1        0.1058
      5 N         140.4930  140.2307  162.8069 N.ar    1  UNL1       -0.1482
      6 N         140.2801  140.0136  161.3381 N.ar    1  UNL1       -0.1524
      7 C         139.5270  140.6260  165.1862 C.ar    1  UNL1        0.0531
      8 C         139.0208  139.6175  166.1745 C.ar    1  UNL1        0.0046
      9 C         139.2336  139.8346  167.6434 C.ar    1  UNL1        0.0000
     10 C         139.9527  141.0603  168.1239 C.ar    1  UNL1        0.0025
     11 C         140.4589  142.0687  167.1356 C.ar    1  UNL1        0.0365
     12 C         140.2461  141.8515  165.6667 C.ar    1  UNL1        0.1351
     13 O         140.7523  142.8600  164.6784 O.3     1  UNL1       -0.5055
     14 H         141.2015  143.6256  164.9785 H       1  UNL1        0.2922
     15 C         140.1655  141.2774  169.5927 C.2     1  UNL1        0.0250
     16 C         140.6158  140.2427  170.5809 C.2     1  UNL1        0.1194
     17 N         140.6940  140.8932  171.9302 N.2     1  UNL1       -0.1510
     18 N         140.2920  142.3301  171.7760 N.2     1  UNL1       -0.1695
     19 C         139.9653  142.5675  170.3314 C.3     1  UNL1        0.1771
     20 C         138.6758  139.7574  159.3107 C.3     1  UNL1        0.0477
     21 C         139.6389  144.5490  156.8575 C.3     1  UNL1        0.0158
     22 C         139.3609  143.2325  157.5207 C.3     1  UNL1        0.0419
     23 C         140.6069  143.6350  158.2526 C.3     1  UNL1        0.0158
     24 C         139.5156  142.0559  158.4381 C.3     1  UNL1        0.0149
     25 C         138.5210  140.9340  158.3933 C.3     1  UNL1        0.0085
     26 C         137.3716  140.9888  157.4311 C.3     1  UNL1        0.0149
     27 C         137.2168  142.1654  156.5138 C.3     1  UNL1        0.0419
     28 C         136.0246  141.3544  156.1004 C.3     1  UNL1        0.0158
     29 C         136.6480  143.0603  155.4529 C.3     1  UNL1        0.0158
     30 N         138.2115  143.2873  156.5586 N.3     1  UNL1       -0.3016
     31 H         137.6883  144.1362  156.7728 H       1  UNL1        0.1231
@<TRIPOS>BOND
     1    21    22    1
     2    22    23    1
     3    22    24    1
     4    24    25    1
     5    25    20    1
     6    20     1    1
     7     1     2   ar
     8     2     3   ar
     9     3     4   ar
    10     4     7    1
    11     7     8   ar
    12     8     9   ar
    13     9    10   ar
    14    10    15    1
    15    15    16    2
    16    16    17    1
    17    17    18    2
    18    18    19    1
    19    10    11   ar
    20    11    12   ar
    21    12    13    1
    22     4     5   ar
    23     5     6   ar
    24    25    26    1
    25    26    27    1
    26    27    28    1
    27    27    29    1
    28    27    30    1
    29    30    22    1
    30     6     1   ar
    31    12     7   ar
    32    19    15    1
    33    13    14    1
    34    30    31    1
@<TRIPOS>MOLECULE
*****
 31 34 0 0 0
SMALL
GASTEIGER

@<TRIPOS>ATOM
      1 C         143.9340  142.5147  160.8520 C.ar    1  UNL1        0.0806
      2 C         144.7777  141.8177  161.8779 C.ar    1  UNL1        0.0181
      3 C         144.3425  141.7892  163.3131 C.ar    1  UNL1        0.0223
      4 C         143.0636  142.4579  163.7224 C.ar    1  UNL1        0.1058
      5 N         142.2200  143.1549  162.6965 N.ar    1  UNL1       -0.1482
      6 N         142.6552  143.1833  161.2613 N.ar    1  UNL1       -0.1524
      7 C         142.6283  142.4294  165.1576 C.ar    1  UNL1        0.0531
      8 C         143.6533  142.4512  166.2527 C.ar    1  UNL1        0.0046
      9 C         143.2180  142.4228  167.6879 C.ar    1  UNL1        0.0000
     10 C         141.7579  142.3725  168.0280 C.ar    1  UNL1        0.0025
     11 C         140.7331  142.3507  166.9329 C.ar    1  UNL1        0.0365
     12 C         141.1683  142.3792  165.4977 C.ar    1  UNL1        0.1351
     13 O         140.1434  142.3573  164.4026 O.3     1  UNL1       -0.5055
     14 H         139.2314  142.3259  164.6151 H       1  UNL1        0.2922
     15 C         141.3227  142.3441  169.4632 C.2     1  UNL1        0.0250
     16 C         142.1484  141.8791  170.6259 C.2     1  UNL1        0.1194
     17 N         141.3214  142.0233  171.8689 N.2     1  UNL1       -0.1510
     18 N         139.9845  142.5774  171.4745 N.2     1  UNL1       -0.1695
     19 C         139.9853  142.7757  169.9877 C.3     1  UNL1        0.1771
     20 C         144.3692  142.5432  159.4168 C.3     1  UNL1        0.0477
     21 C         144.9074  139.0391  155.2531 C.3     1  UNL1        0.0158
     22 C         144.7484  139.9899  156.4023 C.3     1  UNL1        0.0419
     23 C         145.7675  140.7320  155.5894 C.3     1  UNL1        0.0158
     24 C         144.9433  141.1984  157.2692 C.3     1  UNL1        0.0149
     25 C         144.1743  141.3346  158.5499 C.3     1  UNL1        0.0085
     26 C         143.2104  140.2624  158.9636 C.3     1  UNL1        0.0149
     27 C         143.0155  139.0539  158.0967 C.3     1  UNL1        0.0419
     28 C         142.0641  138.7315  159.2106 C.3     1  UNL1        0.0158
     29 C         142.4902  137.7335  157.6166 C.3     1  UNL1        0.0158
     30 N         143.7845  138.9177  156.8161 N.3     1  UNL1       -0.3016
     31 H         143.0970  138.8349  156.0672 H       1  UNL1        0.1231
@<TRIPOS>BOND
     1    21    22    1
     2    22    23    1
     3    22    24    1
     4    24    25    1
     5    25    20    1
     6    20     1    1
     7     1     2   ar
     8     2     3   ar
     9     3     4   ar
    10     4     7    1
    11     7     8   ar
    12     8     9   ar
    13     9    10   ar
    14    10    15    1
    15    15    16    2
    16    16    17    1
    17    17    18    2
    18    18    19    1
    19    10    11   ar
    20    11    12   ar
    21    12    13    1
    22     4     5   ar
    23     5     6   ar
    24    25    26    1
    25    26    27    1
    26    27    28    1
    27    27    29    1
    28    27    30    1
    29    30    22    1
    30     6     1   ar
    31    12     7   ar
    32    19    15    1
    33    13    14    1
    34    30    31    1
@<TRIPOS>MOLECULE
*****
 31 34 0 0 0
SMALL
GASTEIGER

@<TRIPOS>ATOM
      1 C         143.9097  142.4709  160.8280 C.ar    1  UNL1        0.0806
      2 C         144.6824  141.6685  161.8327 C.ar    1  UNL1        0.0181
      3 C         144.2479  141.6454  163.2682 C.ar    1  UNL1        0.0223
      4 C         143.0407  142.4247  163.6990 C.ar    1  UNL1        0.1058
      5 N         142.2681  143.2269  162.6944 N.ar    1  UNL1       -0.1482
      6 N         142.7026  143.2501  161.2589 N.ar    1  UNL1       -0.1524
      7 C         142.6062  142.4015  165.1345 C.ar    1  UNL1        0.0531
      8 C         143.6312  142.4410  166.2291 C.ar    1  UNL1        0.0046
      9 C         143.1967  142.4179  167.6646 C.ar    1  UNL1        0.0000
     10 C         141.7373  142.3553  168.0055 C.ar    1  UNL1        0.0025
     11 C         140.7124  142.3158  166.9110 C.ar    1  UNL1        0.0365
     12 C         141.1469  142.3389  165.4755 C.ar    1  UNL1        0.1351
     13 O         140.1219  142.2994  164.3809 O.3     1  UNL1       -0.5055
     14 H         139.2103  142.2603  164.5940 H       1  UNL1        0.2922
     15 C         141.3028  142.3322  169.4411 C.2     1  UNL1        0.0250
     16 C         142.0746  141.7472  170.5865 C.2     1  UNL1        0.1194
     17 N         141.2690  141.9435  171.8366 N.2     1  UNL1       -0.1510
     18 N         139.9993  142.6498  171.4636 N.2     1  UNL1       -0.1695
     19 C         140.0202  142.8900  169.9831 C.3     1  UNL1        0.1771
     20 C         144.3442  142.4940  159.3925 C.3     1  UNL1        0.0477
     21 C         142.4087  137.7055  157.5956 C.3     1  UNL1        0.0158
     22 C         142.9495  139.0200  158.0747 C.3     1  UNL1        0.0419
     23 C         141.9965  138.7082  159.1904 C.3     1  UNL1        0.0158
     24 C         143.1594  140.2263  158.9413 C.3     1  UNL1        0.0149
     25 C         144.1344  141.2877  158.5259 C.3     1  UNL1        0.0085
     26 C         144.8996  141.1430  157.2439 C.3     1  UNL1        0.0149
     27 C         144.6897  139.9368  156.3774 C.3     1  UNL1        0.0419
     28 C         145.7156  140.6674  155.5627 C.3     1  UNL1        0.0158
     29 C         144.8362  138.9843  155.2279 C.3     1  UNL1        0.0158
     30 N         143.7147  138.8753  156.7928 N.3     1  UNL1       -0.3016
     31 H         144.2397  138.0033  156.8600 H       1  UNL1        0.1231
@<TRIPOS>BOND
     1    21    22    1
     2    22    23    1
     3    22    24    1
     4    24    25    1
     5    25    20    1
     6    20     1    1
     7     1     2   ar
     8     2     3   ar
     9     3     4   ar
    10     4     7    1
    11     7     8   ar
    12     8     9   ar
    13     9    10   ar
    14    10    15    1
    15    15    16    2
    16    16    17    1
    17    17    18    2
    18    18    19    1
    19    10    11   ar
    20    11    12   ar
    21    12    13    1
    22     4     5   ar
    23     5     6   ar
    24    25    26    1
    25    26    27    1
    26    27    28    1
    27    27    29    1
    28    27    30    1
    29    30    22    1
    30     6     1   ar
    31    12     7   ar
    32    19    15    1
    33    13    14    1
    34    30    31    1
@<TRIPOS>MOLECULE
*****
 31 34 0 0 0
SMALL
GASTEIGER

@<TRIPOS>ATOM
      1 C         138.6168  141.2932  160.7120 C.ar    1  UNL1        0.0806
      2 C         139.7483  140.4909  161.2832 C.ar    1  UNL1        0.0181
      3 C         140.0239  140.5267  162.7572 C.ar    1  UNL1        0.0223
      4 C         139.1681  141.3649  163.6601 C.ar    1  UNL1        0.1058
      5 N         138.0367  142.1672  163.0889 N.ar    1  UNL1       -0.1482
      6 N         137.7611  142.1314  161.6148 N.ar    1  UNL1       -0.1524
      7 C         139.4437  141.4008  165.1341 C.ar    1  UNL1        0.0531
      8 C         139.2288  140.1721  165.9674 C.ar    1  UNL1        0.0046
      9 C         139.5045  140.2080  167.4414 C.ar    1  UNL1        0.0000
     10 C         139.9950  141.4725  168.0821 C.ar    1  UNL1        0.0025
     11 C         140.2098  142.7011  167.2488 C.ar    1  UNL1        0.0365
     12 C         139.9342  142.6652  165.7748 C.ar    1  UNL1        0.1351
     13 O         140.1491  143.8939  164.9415 O.3     1  UNL1       -0.5055
     14 H         140.4554  144.6838  165.3418 H       1  UNL1        0.2922
     15 C         140.2706  141.5084  169.5562 C.2     1  UNL1        0.0250
     16 C         140.0981  142.6955  170.4568 C.2     1  UNL1        0.1194
     17 N         140.4880  142.2842  171.8456 N.2     1  UNL1       -0.1510
     18 N         140.9015  140.8429  171.8034 N.2     1  UNL1       -0.1695
     19 C         140.7671  140.3635  170.3884 C.3     1  UNL1        0.1771
     20 C         138.3412  141.2574  159.2380 C.3     1  UNL1        0.0477
     21 C         140.8174  145.8001  157.4669 C.3     1  UNL1        0.0158
     22 C         140.1280  144.5544  157.9391 C.3     1  UNL1        0.0419
     23 C         141.1260  144.7347  159.0443 C.3     1  UNL1        0.0158
     24 C         139.7853  143.3713  158.7951 C.3     1  UNL1        0.0149
     25 C         138.6840  142.4405  158.3819 C.3     1  UNL1        0.0085
     26 C         137.9254  142.6927  157.1127 C.3     1  UNL1        0.0149
     27 C         138.2682  143.8758  156.2567 C.3     1  UNL1        0.0419
     28 C         137.1512  143.2846  155.4487 C.3     1  UNL1        0.0158
     29 C         138.2230  144.8536  155.1201 C.3     1  UNL1        0.0158
     30 N         139.3695  144.8066  156.6699 N.3     1  UNL1       -0.3016
     31 H         138.9545  145.7346  156.7543 H       1  UNL1        0.1231
@<TRIPOS>BOND
     1    21    22    1
     2    22    23    1
     3    22    24    1
     4    24    25    1
     5    25    20    1
     6    20     1    1
     7     1     2   ar
     8     2     3   ar
     9     3     4   ar
    10     4     7    1
    11     7     8   ar
    12     8     9   ar
    13     9    10   ar
    14    10    15    1
    15    15    16    2
    16    16    17    1
    17    17    18    2
    18    18    19    1
    19    10    11   ar
    20    11    12   ar
    21    12    13    1
    22     4     5   ar
    23     5     6   ar
    24    25    26    1
    25    26    27    1
    26    27    28    1
    27    27    29    1
    28    27    30    1
    29    30    22    1
    30     6     1   ar
    31    12     7   ar
    32    19    15    1
    33    13    14    1
    34    30    31    1
@<TRIPOS>MOLECULE
*****
 31 34 0 0 0
SMALL
GASTEIGER

@<TRIPOS>ATOM
      1 C         139.9616  138.8417  160.7071 C.ar    1  UNL1        0.0806
      2 C         139.5853  140.2359  161.1130 C.ar    1  UNL1        0.0181
      3 C         139.6340  140.6352  162.5581 C.ar    1  UNL1        0.0223
      4 C         140.0589  139.6403  163.5972 C.ar    1  UNL1        0.1058
      5 N         140.4352  138.2462  163.1912 N.ar    1  UNL1       -0.1482
      6 N         140.3865  137.8469  161.7461 N.ar    1  UNL1       -0.1524
      7 C         140.1076  140.0396  165.0422 C.ar    1  UNL1        0.0531
      8 C         140.9472  141.2068  165.4700 C.ar    1  UNL1        0.0046
      9 C         140.9958  141.6061  166.9150 C.ar    1  UNL1        0.0000
     10 C         140.2049  140.8382  167.9324 C.ar    1  UNL1        0.0025
     11 C         139.3654  139.6711  167.5046 C.ar    1  UNL1        0.0365
     12 C         139.3167  139.2718  166.0595 C.ar    1  UNL1        0.1351
     13 O         138.4772  138.1046  165.6318 O.3     1  UNL1       -0.5055
     14 H         137.9831  137.6250  166.2673 H       1  UNL1        0.2922
     15 C         140.2536  141.2375  169.3774 C.2     1  UNL1        0.0250
     16 C         140.4922  140.3184  170.5386 C.2     1  UNL1        0.1194
     17 N         140.4582  141.1388  171.7939 N.2     1  UNL1       -0.1510
     18 N         140.1987  142.5650  171.4085 N.2     1  UNL1       -0.1695
     19 C         140.0722  142.6260  169.9151 C.3     1  UNL1        0.1771
     20 C         139.9129  138.4425  159.2620 C.3     1  UNL1        0.0477
     21 C         144.4943  140.4172  157.0222 C.3     1  UNL1        0.0158
     22 C         143.2394  139.8614  157.6274 C.3     1  UNL1        0.0419
     23 C         143.2967  141.1901  158.3211 C.3     1  UNL1        0.0158
     24 C         142.0044  139.7669  158.4736 C.3     1  UNL1        0.0149
     25 C         141.1479  138.5368  158.4158 C.3     1  UNL1        0.0085
     26 C         141.5264  137.4012  157.5120 C.3     1  UNL1        0.0149
     27 C         142.7613  137.4956  156.6659 C.3     1  UNL1        0.0419
     28 C         142.2752  136.1341  156.2660 C.3     1  UNL1        0.0158
     29 C         143.8275  137.1172  155.6809 C.3     1  UNL1        0.0158
     30 N         143.6178  138.7257  156.7236 N.3     1  UNL1       -0.3016
     31 H         143.6555  139.1030  155.7767 H       1  UNL1        0.1231
@<TRIPOS>BOND
     1    21    22    1
     2    22    23    1
     3    22    24    1
     4    24    25    1
     5    25    20    1
     6    20     1    1
     7     1     2   ar
     8     2     3   ar
     9     3     4   ar
    10     4     7    1
    11     7     8   ar
    12     8     9   ar
    13     9    10   ar
    14    10    15    1
    15    15    16    2
    16    16    17    1
    17    17    18    2
    18    18    19    1
    19    10    11   ar
    20    11    12   ar
    21    12    13    1
    22     4     5   ar
    23     5     6   ar
    24    25    26    1
    25    26    27    1
    26    27    28    1
    27    27    29    1
    28    27    30    1
    29    30    22    1
    30     6     1   ar
    31    12     7   ar
    32    19    15    1
    33    13    14    1
    34    30    31    1
@<TRIPOS>MOLECULE
*****
 31 34 0 0 0
SMALL
GASTEIGER

@<TRIPOS>ATOM
      1 C         140.0387  142.4562  165.4058 C.ar    1  UNL1        0.0806
      2 C         139.0575  141.9488  164.3909 C.ar    1  UNL1        0.0181
      3 C         139.0919  142.4744  162.9864 C.ar    1  UNL1        0.0223
      4 C         140.1074  143.5074  162.5968 C.ar    1  UNL1        0.1058
      5 N         141.0884  144.0148  163.6117 N.ar    1  UNL1       -0.1482
      6 N         141.0541  143.4892  165.0162 N.ar    1  UNL1       -0.1524
      7 C         140.1417  144.0330  161.1924 C.ar    1  UNL1        0.0531
      8 C         140.0680  143.0829  160.0340 C.ar    1  UNL1        0.0046
      9 C         140.1024  143.6085  158.6295 C.ar    1  UNL1        0.0000
     10 C         140.2104  145.0842  158.3834 C.ar    1  UNL1        0.0025
     11 C         140.2841  146.0343  159.5418 C.ar    1  UNL1        0.0365
     12 C         140.2498  145.5087  160.9462 C.ar    1  UNL1        0.1351
     13 O         140.3235  146.4589  162.1046 O.3     1  UNL1       -0.5055
     14 H         140.3910  147.3807  161.9509 H       1  UNL1        0.2922
     15 C         140.2448  145.6098  156.9789 C.2     1  UNL1        0.0250
     16 C         140.9888  145.0010  155.8276 C.2     1  UNL1        0.1194
     17 N         140.7450  145.8514  154.6163 N.2     1  UNL1       -0.1510
     18 N         139.8502  146.9859  155.0190 N.2     1  UNL1       -0.1695
     19 C         139.5410  146.8366  156.4792 C.3     1  UNL1        0.1771
     20 C         140.0043  141.9306  166.8103 C.3     1  UNL1        0.0477
     21 C         143.9041  138.1039  166.5810 C.3     1  UNL1        0.0158
     22 C         142.8336  139.1516  166.6608 C.3     1  UNL1        0.0419
     23 C         143.0792  139.1422  165.1810 C.3     1  UNL1        0.0158
     24 C         141.8485  140.1961  166.2266 C.3     1  UNL1        0.0149
     25 C         140.9895  140.8861  167.2445 C.3     1  UNL1        0.0085
     26 C         141.1157  140.5317  168.6965 C.3     1  UNL1        0.0149
     27 C         142.1009  139.4872  169.1306 C.3     1  UNL1        0.0419
     28 C         141.5133  139.8594  170.4596 C.3     1  UNL1        0.0158
     29 C         142.8820  138.5720  170.0263 C.3     1  UNL1        0.0158
     30 N         142.9598  138.7972  168.1128 N.3     1  UNL1       -0.3016
     31 H         142.7642  137.7992  168.1903 H       1  UNL1        0.1231
@<TRIPOS>BOND
     1    21    22    1
     2    22    23    1
     3    22    24    1
     4    24    25    1
     5    25    20    1
     6    20     1    1
     7     1     2   ar
     8     2     3   ar
     9     3     4   ar
    10     4     7    1
    11     7     8   ar
    12     8     9   ar
    13     9    10   ar
    14    10    15    1
    15    15    16    2
    16    16    17    1
    17    17    18    2
    18    18    19    1
    19    10    11   ar
    20    11    12   ar
    21    12    13    1
    22     4     5   ar
    23     5     6   ar
    24    25    26    1
    25    26    27    1
    26    27    28    1
    27    27    29    1
    28    27    30    1
    29    30    22    1
    30     6     1   ar
    31    12     7   ar
    32    19    15    1
    33    13    14    1
    34    30    31    1
@<TRIPOS>MOLECULE
*****
 31 34 0 0 0
SMALL
GASTEIGER

@<TRIPOS>ATOM
      1 C         142.7459  137.8869  161.5803 C.ar    1  UNL1        0.0806
      2 C         141.3508  137.7864  162.1222 C.ar    1  UNL1        0.0181
      3 C         141.0226  138.3751  163.4622 C.ar    1  UNL1        0.0223
      4 C         142.0894  139.0644  164.2603 C.ar    1  UNL1        0.1058
      5 N         143.4845  139.1648  163.7184 N.ar    1  UNL1       -0.1482
      6 N         143.8127  138.5760  162.3783 N.ar    1  UNL1       -0.1524
      7 C         141.7612  139.6531  165.6003 C.ar    1  UNL1        0.0531
      8 C         140.6291  140.6281  165.7342 C.ar    1  UNL1        0.0046
      9 C         140.3009  141.2169  167.0742 C.ar    1  UNL1        0.0000
     10 C         141.1047  140.8306  168.2804 C.ar    1  UNL1        0.0025
     11 C         142.2367  139.8556  168.1465 C.ar    1  UNL1        0.0365
     12 C         142.5650  139.2669  166.8064 C.ar    1  UNL1        0.1351
     13 O         143.6970  138.2918  166.6726 O.3     1  UNL1       -0.5055
     14 H         144.1991  138.0506  167.4260 H       1  UNL1        0.2922
     15 C         140.7765  141.4193  169.6204 C.2     1  UNL1        0.0250
     16 C         139.9747  142.6634  169.8644 C.2     1  UNL1        0.1194
     17 N         139.8951  142.8803  171.3465 N.2     1  UNL1       -0.1510
     18 N         140.6477  141.7704  172.0185 N.2     1  UNL1       -0.1695
     19 C         141.1924  140.8675  170.9517 C.3     1  UNL1        0.1771
     20 C         143.0742  137.2981  160.2403 C.3     1  UNL1        0.0477
     21 C         142.2116  138.4415  154.9626 C.3     1  UNL1        0.0158
     22 C         142.4459  138.1443  156.4141 C.3     1  UNL1        0.0419
     23 C         142.6074  136.7691  155.8372 C.3     1  UNL1        0.0158
     24 C         142.7363  137.3695  157.6652 C.3     1  UNL1        0.0149
     25 C         142.7838  138.0730  158.9891 C.3     1  UNL1        0.0085
     26 C         142.5409  139.5514  159.0620 C.3     1  UNL1        0.0149
     27 C         142.2505  140.3262  157.8109 C.3     1  UNL1        0.0419
     28 C         142.1898  141.4323  158.8222 C.3     1  UNL1        0.0158
     29 C         141.9390  141.4852  156.9110 C.3     1  UNL1        0.0158
     30 N         142.2030  139.6227  156.4869 N.3     1  UNL1       -0.3016
     31 H         142.9037  140.0658  155.8927 H       1  UNL1        0.1231
@<TRIPOS>BOND
     1    21    22    1
     2    22    23    1
     3    22    24    1
     4    24    25    1
     5    25    20    1
     6    20     1    1
     7     1     2   ar
     8     2     3   ar
     9     3     4   ar
    10     4     7    1
    11     7     8   ar
    12     8     9   ar
    13     9    10   ar
    14    10    15    1
    15    15    16    2
    16    16    17    1
    17    17    18    2
    18    18    19    1
    19    10    11   ar
    20    11    12   ar
    21    12    13    1
    22     4     5   ar
    23     5     6   ar
    24    25    26    1
    25    26    27    1
    26    27    28    1
    27    27    29    1
    28    27    30    1
    29    30    22    1
    30     6     1   ar
    31    12     7   ar
    32    19    15    1
    33    13    14    1
    34    30    31    1
@<TRIPOS>MOLECULE
*****
 31 34 0 0 0
SMALL
GASTEIGER

@<TRIPOS>ATOM
      1 C         140.3343  138.8460  160.7587 C.ar    1  UNL1        0.0806
      2 C         141.2875  138.1023  161.6467 C.ar    1  UNL1        0.0181
      3 C         141.3919  138.4586  163.1000 C.ar    1  UNL1        0.0223
      4 C         140.5431  139.5587  163.6654 C.ar    1  UNL1        0.1058
      5 N         139.5900  140.3023  162.7774 N.ar    1  UNL1       -0.1482
      6 N         139.4856  139.9460  161.3241 N.ar    1  UNL1       -0.1524
      7 C         140.6476  139.9151  165.1187 C.ar    1  UNL1        0.0531
      8 C         141.9867  140.2209  165.7215 C.ar    1  UNL1        0.0046
      9 C         142.0911  140.5772  167.1748 C.ar    1  UNL1        0.0000
     10 C         140.8564  140.6278  168.0253 C.ar    1  UNL1        0.0025
     11 C         139.5174  140.3220  167.4224 C.ar    1  UNL1        0.0365
     12 C         139.4130  139.9656  165.9691 C.ar    1  UNL1        0.1351
     13 O         138.0739  139.6598  165.3662 O.3     1  UNL1       -0.5055
     14 H         137.3027  139.6914  165.8974 H       1  UNL1        0.2922
     15 C         140.9609  140.9842  169.4786 C.2     1  UNL1        0.0250
     16 C         140.2612  140.2897  170.6092 C.2     1  UNL1        0.1194
     17 N         140.6512  140.9739  171.8858 N.2     1  UNL1       -0.1510
     18 N         141.5919  142.0912  171.5442 N.2     1  UNL1       -0.1695
     19 C         141.7833  142.0976  170.0565 C.3     1  UNL1        0.1771
     20 C         140.2298  138.4896  159.3054 C.3     1  UNL1        0.0477
     21 C         144.0117  137.2813  155.5447 C.3     1  UNL1        0.0158
     22 C         142.9819  137.6277  156.5790 C.3     1  UNL1        0.0419
     23 C         142.4906  136.2719  156.1661 C.3     1  UNL1        0.0158
     24 C         141.7816  137.5032  157.4699 C.3     1  UNL1        0.0149
     25 C         141.4302  138.6141  158.4145 C.3     1  UNL1        0.0085
     26 C         142.2792  139.8496  158.4683 C.3     1  UNL1        0.0149
     27 C         143.4795  139.9741  157.5774 C.3     1  UNL1        0.0419
     28 C         143.5540  141.2866  158.2998 C.3     1  UNL1        0.0158
     29 C         144.7057  140.5544  156.9374 C.3     1  UNL1        0.0158
     30 N         143.8309  138.8631  156.6328 N.3     1  UNL1       -0.3016
     31 H         144.7754  138.5612  156.8717 H       1  UNL1        0.1231
@<TRIPOS>BOND
     1    21    22    1
     2    22    23    1
     3    22    24    1
     4    24    25    1
     5    25    20    1
     6    20     1    1
     7     1     2   ar
     8     2     3   ar
     9     3     4   ar
    10     4     7    1
    11     7     8   ar
    12     8     9   ar
    13     9    10   ar
    14    10    15    1
    15    15    16    2
    16    16    17    1
    17    17    18    2
    18    18    19    1
    19    10    11   ar
    20    11    12   ar
    21    12    13    1
    22     4     5   ar
    23     5     6   ar
    24    25    26    1
    25    26    27    1
    26    27    28    1
    27    27    29    1
    28    27    30    1
    29    30    22    1
    30     6     1   ar
    31    12     7   ar
    32    19    15    1
    33    13    14    1
    34    30    31    1
