@<TRIPOS>MOLECULE
*****
 30 34 0 0 0
SMALL
GASTEIGER

@<TRIPOS>ATOM
      1 C         138.5725  142.0678  164.8957 C.3     1  UNL1        0.0339
      2 C         138.6618  140.7229  164.2376 C.ar    1  UNL1        0.0095
      3 C         138.7883  139.4850  165.0752 C.ar    1  UNL1        0.0730
      4 C         138.8776  138.1400  164.4170 C.ar    1  UNL1        0.1531
      5 F         139.0042  136.9021  165.2547 F       1  UNL1       -0.2029
      6 C         138.8403  138.0330  162.9214 C.ar    1  UNL1        0.0323
      7 C         138.7138  139.2709  162.0838 C.ar    1  UNL1        0.0181
      8 C         138.6765  139.1639  160.5880 C.ar    1  UNL1        0.0074
      9 C         138.5499  140.4018  159.7505 C.ar    1  UNL1        0.0702
     10 C         138.4606  141.7467  160.4086 C.ar    1  UNL1        0.2618
     11 O         138.3341  142.9847  159.5710 O.2     1  UNL1       -0.2669
     12 N         138.4979  141.8538  161.9043 N.ar    1  UNL1       -0.2976
     13 C         138.6245  140.6158  162.7419 C.ar    1  UNL1        0.0597
     14 N         138.8256  139.5920  166.5709 N.pl3   1  UNL1       -0.3059
     15 C         137.7900  139.0637  167.5187 C.3     1  UNL1        0.0909
     16 C         138.2293  139.3912  168.9150 C.3     1  UNL1        0.0244
     17 C         139.5365  140.1220  168.8302 C.3     1  UNL1        0.0344
     18 C         139.9050  140.2461  167.3814 C.3     1  UNL1        0.0921
     19 C         140.3351  140.6381  169.9904 C.3     1  UNL1        0.0406
     20 N         139.9054  139.6708  171.0531 N.3     1  UNL1       -0.3231
     21 C         141.2827  141.4902  170.7814 C.3     1  UNL1        0.0156
     22 C         141.0420  141.7848  169.3304 C.3     1  UNL1        0.0156
     23 H         139.2396  139.0062  170.6589 H       1  UNL1        0.1188
     24 H         139.4642  140.1805  171.8186 H       1  UNL1        0.1188
     25 C         138.5126  140.2948  158.2547 C.2     1  UNL1        0.0775
     26 O         139.7882  140.1319  157.4824 O.co2   1  UNL1       -0.5444
     27 O         137.1998  140.3507  157.5313 O.co2   1  UNL1       -0.5444
     28 C         138.4086  143.1987  162.5624 C.3     1  UNL1        0.0885
     29 C         139.0660  144.4662  163.0220 C.3     1  UNL1        0.0246
     30 C         137.5966  144.2607  163.2427 C.3     1  UNL1        0.0246
@<TRIPOS>UNITY_ATOM_ATTR
26 1
charge -1
@<TRIPOS>BOND
     1     1     2    1
     2     2     3   ar
     3     3    14    1
     4    14    15    1
     5    15    16    1
     6    16    17    1
     7    17    19    1
     8    19    20    1
     9    19    21    1
    10    21    22    1
    11    17    18    1
    12     3     4   ar
    13     4     5    1
    14     4     6   ar
    15     6     7   ar
    16     7     8   ar
    17     8     9   ar
    18     9    25    1
    19    25    26   ar
    20    25    27   ar
    21     9    10   ar
    22    10    11    2
    23    10    12   ar
    24    12    28    1
    25    28    29    1
    26    29    30    1
    27    12    13   ar
    28    13     2   ar
    29    18    14    1
    30    13     7   ar
    31    22    19    1
    32    30    28    1
    33    20    23    1
    34    20    24    1
@<TRIPOS>MOLECULE
*****
 30 34 0 0 0
SMALL
GASTEIGER

@<TRIPOS>ATOM
      1 C         140.7739  140.6271  164.0589 C.3     1  UNL1        0.0339
      2 C         141.6528  141.2816  165.0831 C.ar    1  UNL1        0.0095
      3 C         142.8600  142.0588  164.6488 C.ar    1  UNL1        0.0730
      4 C         143.7390  142.7133  165.6730 C.ar    1  UNL1        0.1531
      5 F         144.9463  143.4905  165.2387 F       1  UNL1       -0.2029
      6 C         143.4107  142.5908  167.1315 C.ar    1  UNL1        0.0323
      7 C         142.2035  141.8136  167.5658 C.ar    1  UNL1        0.0181
      8 C         141.8752  141.6910  169.0243 C.ar    1  UNL1        0.0074
      9 C         140.6680  140.9139  169.4586 C.ar    1  UNL1        0.0702
     10 C         139.7890  140.2593  168.4344 C.ar    1  UNL1        0.2618
     11 O         138.5818  139.4821  168.8687 O.2     1  UNL1       -0.2669
     12 N         140.1173  140.3819  166.9759 N.ar    1  UNL1       -0.2976
     13 C         141.3246  141.1591  166.5416 C.ar    1  UNL1        0.0597
     14 N         143.1883  142.1814  163.1903 N.pl3   1  UNL1       -0.3059
     15 C         144.2116  141.3757  162.4461 C.3     1  UNL1        0.0909
     16 C         144.2068  141.8275  161.0158 C.3     1  UNL1        0.0244
     17 C         143.1804  142.9125  160.8760 C.3     1  UNL1        0.0344
     18 C         142.5510  143.1312  162.2199 C.3     1  UNL1        0.0921
     19 C         142.8428  143.6495  159.6139 C.3     1  UNL1        0.0406
     20 N         142.1625  144.8555  160.1905 N.3     1  UNL1       -0.3231
     21 C         142.7415  143.9675  158.1515 C.3     1  UNL1        0.0156
     22 C         143.4059  142.6992  158.5990 C.3     1  UNL1        0.0156
     23 H         142.1512  144.7855  161.2080 H       1  UNL1        0.1188
     24 H         141.2050  144.9047  159.8424 H       1  UNL1        0.1188
     25 C         140.3397  140.7913  170.9171 C.2     1  UNL1        0.0775
     26 O         139.7787  139.5080  171.4543 O.co2   1  UNL1       -0.5444
     27 O         140.5724  141.9519  171.8384 O.co2   1  UNL1       -0.5444
     28 C         139.2383  139.7273  165.9517 C.3     1  UNL1        0.0885
     29 C         138.1310  139.8147  164.9437 C.3     1  UNL1        0.0246
     30 C         138.8233  138.5062  165.1858 C.3     1  UNL1        0.0246
@<TRIPOS>UNITY_ATOM_ATTR
26 1
charge -1
@<TRIPOS>BOND
     1     1     2    1
     2     2     3   ar
     3     3    14    1
     4    14    15    1
     5    15    16    1
     6    16    17    1
     7    17    19    1
     8    19    20    1
     9    19    21    1
    10    21    22    1
    11    17    18    1
    12     3     4   ar
    13     4     5    1
    14     4     6   ar
    15     6     7   ar
    16     7     8   ar
    17     8     9   ar
    18     9    25    1
    19    25    26   ar
    20    25    27   ar
    21     9    10   ar
    22    10    11    2
    23    10    12   ar
    24    12    28    1
    25    28    29    1
    26    29    30    1
    27    12    13   ar
    28    13     2   ar
    29    18    14    1
    30    13     7   ar
    31    22    19    1
    32    30    28    1
    33    20    23    1
    34    20    24    1
@<TRIPOS>MOLECULE
*****
 30 34 0 0 0
SMALL
GASTEIGER

@<TRIPOS>ATOM
      1 C         141.8039  140.7068  163.9962 C.3     1  UNL1        0.0339
      2 C         141.1028  141.7517  164.8126 C.ar    1  UNL1        0.0095
      3 C         140.4259  142.9050  164.1331 C.ar    1  UNL1        0.0730
      4 C         139.7247  143.9499  164.9495 C.ar    1  UNL1        0.1531
      5 F         139.0478  145.1033  164.2699 F       1  UNL1       -0.2029
      6 C         139.7005  143.8416  166.4453 C.ar    1  UNL1        0.0323
      7 C         140.3774  142.6883  167.1248 C.ar    1  UNL1        0.0181
      8 C         140.3531  142.5800  168.6207 C.ar    1  UNL1        0.0074
      9 C         141.0300  141.4267  169.3002 C.ar    1  UNL1        0.0702
     10 C         141.7312  140.3817  168.4838 C.ar    1  UNL1        0.2618
     11 O         142.4081  139.2284  169.1634 O.2     1  UNL1       -0.2669
     12 N         141.7554  140.4901  166.9880 N.ar    1  UNL1       -0.2976
     13 C         141.0785  141.6434  166.3084 C.ar    1  UNL1        0.0597
     14 N         140.4501  143.0134  162.6372 N.pl3   1  UNL1       -0.3059
     15 C         139.4105  142.4785  161.6975 C.3     1  UNL1        0.0909
     16 C         139.8360  142.8101  160.2979 C.3     1  UNL1        0.0244
     17 C         141.1387  143.5501  160.3726 C.3     1  UNL1        0.0344
     18 C         141.5182  143.6757  161.8183 C.3     1  UNL1        0.0921
     19 C         141.9240  144.0727  159.2063 C.3     1  UNL1        0.0406
     20 N         141.8086  145.5474  159.4544 N.3     1  UNL1       -0.3231
     21 C         142.7493  144.0830  157.9538 C.3     1  UNL1        0.0156
     22 C         142.3121  142.7793  158.5531 C.3     1  UNL1        0.0156
     23 H         141.2582  145.7082  160.2980 H       1  UNL1        0.1188
     24 H         141.3494  145.9912  158.6591 H       1  UNL1        0.1188
     25 C         141.0058  141.3183  170.7961 C.2     1  UNL1        0.0775
     26 O         140.1254  140.3015  171.4603 O.co2   1  UNL1       -0.5444
     27 O         141.8619  142.2267  171.6279 O.co2   1  UNL1       -0.5444
     28 C         142.4566  139.4451  166.1716 C.3     1  UNL1        0.0885
     29 C         142.4217  138.1575  165.4031 C.3     1  UNL1        0.0246
     30 C         143.7058  138.9230  165.5261 C.3     1  UNL1        0.0246
@<TRIPOS>UNITY_ATOM_ATTR
26 1
charge -1
@<TRIPOS>BOND
     1     1     2    1
     2     2     3   ar
     3     3    14    1
     4    14    15    1
     5    15    16    1
     6    16    17    1
     7    17    19    1
     8    19    20    1
     9    19    21    1
    10    21    22    1
    11    17    18    1
    12     3     4   ar
    13     4     5    1
    14     4     6   ar
    15     6     7   ar
    16     7     8   ar
    17     8     9   ar
    18     9    25    1
    19    25    26   ar
    20    25    27   ar
    21     9    10   ar
    22    10    11    2
    23    10    12   ar
    24    12    28    1
    25    28    29    1
    26    29    30    1
    27    12    13   ar
    28    13     2   ar
    29    18    14    1
    30    13     7   ar
    31    22    19    1
    32    30    28    1
    33    20    23    1
    34    20    24    1
@<TRIPOS>MOLECULE
*****
 30 34 0 0 0
SMALL
GASTEIGER

@<TRIPOS>ATOM
      1 C         141.4693  141.2749  163.3979 C.3     1  UNL1        0.0339
      2 C         140.5372  140.3117  164.0713 C.ar    1  UNL1        0.0095
      3 C         139.8640  139.2361  163.2715 C.ar    1  UNL1        0.0730
      4 C         138.9318  138.2729  163.9449 C.ar    1  UNL1        0.1531
      5 F         138.2585  137.1973  163.1450 F       1  UNL1       -0.2029
      6 C         138.6730  138.3853  165.4180 C.ar    1  UNL1        0.0323
      7 C         139.3463  139.4609  166.2178 C.ar    1  UNL1        0.0181
      8 C         139.0875  139.5734  167.6911 C.ar    1  UNL1        0.0074
      9 C         139.7608  140.6490  168.4909 C.ar    1  UNL1        0.0702
     10 C         140.6929  141.6122  167.8175 C.ar    1  UNL1        0.2618
     11 O         141.3662  142.6878  168.6174 O.2     1  UNL1       -0.2669
     12 N         140.9517  141.4998  166.3444 N.ar    1  UNL1       -0.2976
     13 C         140.2784  140.4241  165.5445 C.ar    1  UNL1        0.0597
     14 N         140.1228  139.1237  161.7982 N.pl3   1  UNL1       -0.3059
     15 C         139.1921  139.5559  160.7040 C.3     1  UNL1        0.0909
     16 C         139.8518  139.2586  159.3901 C.3     1  UNL1        0.0244
     17 C         141.1901  138.6427  159.6722 C.3     1  UNL1        0.0344
     18 C         141.3576  138.5593  161.1605 C.3     1  UNL1        0.0921
     19 C         142.1861  138.1898  158.6461 C.3     1  UNL1        0.0406
     20 N         143.4626  138.4483  159.3903 N.3     1  UNL1       -0.3231
     21 C         142.7388  137.6470  157.3616 C.3     1  UNL1        0.0156
     22 C         141.2555  137.7739  157.5456 C.3     1  UNL1        0.0156
     23 H         143.2478  138.8310  160.3110 H       1  UNL1        0.1188
     24 H         144.0309  139.1157  158.8688 H       1  UNL1        0.1188
     25 C         139.5020  140.7614  169.9642 C.2     1  UNL1        0.0775
     26 O         139.6415  139.5549  170.8444 O.co2   1  UNL1       -0.5444
     27 O         139.1037  142.0804  170.5572 O.co2   1  UNL1       -0.5444
     28 C         141.8838  142.4630  165.6710 C.3     1  UNL1        0.0885
     29 C         142.1034  143.6826  164.8259 C.3     1  UNL1        0.0246
     30 C         143.2786  142.9116  165.3497 C.3     1  UNL1        0.0246
@<TRIPOS>UNITY_ATOM_ATTR
26 1
charge -1
@<TRIPOS>BOND
     1     1     2    1
     2     2     3   ar
     3     3    14    1
     4    14    15    1
     5    15    16    1
     6    16    17    1
     7    17    19    1
     8    19    20    1
     9    19    21    1
    10    21    22    1
    11    17    18    1
    12     3     4   ar
    13     4     5    1
    14     4     6   ar
    15     6     7   ar
    16     7     8   ar
    17     8     9   ar
    18     9    25    1
    19    25    26   ar
    20    25    27   ar
    21     9    10   ar
    22    10    11    2
    23    10    12   ar
    24    12    28    1
    25    28    29    1
    26    29    30    1
    27    12    13   ar
    28    13     2   ar
    29    18    14    1
    30    13     7   ar
    31    22    19    1
    32    30    28    1
    33    20    23    1
    34    20    24    1
@<TRIPOS>MOLECULE
*****
 30 34 0 0 0
SMALL
GASTEIGER

@<TRIPOS>ATOM
      1 C         139.4826  139.2725  164.5182 C.3     1  UNL1        0.0339
      2 C         140.2723  140.4622  164.9774 C.ar    1  UNL1        0.0095
      3 C         141.1055  141.2332  163.9970 C.ar    1  UNL1        0.0730
      4 C         141.8952  142.4230  164.4563 C.ar    1  UNL1        0.1531
      5 F         142.7285  143.1940  163.4758 F       1  UNL1       -0.2029
      6 C         141.8517  142.8417  165.8960 C.ar    1  UNL1        0.0323
      7 C         141.0185  142.0707  166.8764 C.ar    1  UNL1        0.0181
      8 C         140.9749  142.4894  168.3162 C.ar    1  UNL1        0.0074
      9 C         140.1417  141.7184  169.2966 C.ar    1  UNL1        0.0702
     10 C         139.3520  140.5287  168.8373 C.ar    1  UNL1        0.2618
     11 O         138.5187  139.7577  169.8178 O.2     1  UNL1       -0.2669
     12 N         139.3955  140.1100  167.3976 N.ar    1  UNL1       -0.2976
     13 C         140.2288  140.8810  166.4171 C.ar    1  UNL1        0.0597
     14 N         141.1491  140.8145  162.5573 N.pl3   1  UNL1       -0.3059
     15 C         140.2539  141.3195  161.4647 C.3     1  UNL1        0.0909
     16 C         140.6470  140.6345  160.1895 C.3     1  UNL1        0.0244
     17 C         141.7852  139.7060  160.4940 C.3     1  UNL1        0.0344
     18 C         142.0955  139.8173  161.9573 C.3     1  UNL1        0.0921
     19 C         142.4895  138.8216  159.5081 C.3     1  UNL1        0.0406
     20 N         143.8961  138.9328  160.0169 N.3     1  UNL1       -0.3231
     21 C         142.7051  137.8986  158.3456 C.3     1  UNL1        0.0156
     22 C         141.3273  138.4033  158.6570 C.3     1  UNL1        0.0156
     23 H         143.9155  139.5464  160.8315 H       1  UNL1        0.1188
     24 H         144.4926  139.3198  159.2856 H       1  UNL1        0.1188
     25 C         140.0981  142.1371  170.7363 C.2     1  UNL1        0.0775
     26 O         140.7973  141.3149  171.7780 O.co2   1  UNL1       -0.5444
     27 O         139.3553  143.3780  171.1344 O.co2   1  UNL1       -0.5444
     28 C         138.6058  138.9202  166.9383 C.3     1  UNL1        0.0885
     29 C         137.3557  138.0929  166.9885 C.3     1  UNL1        0.0246
     30 C         138.4882  137.6869  166.0927 C.3     1  UNL1        0.0246
@<TRIPOS>UNITY_ATOM_ATTR
26 1
charge -1
@<TRIPOS>BOND
     1     1     2    1
     2     2     3   ar
     3     3    14    1
     4    14    15    1
     5    15    16    1
     6    16    17    1
     7    17    19    1
     8    19    20    1
     9    19    21    1
    10    21    22    1
    11    17    18    1
    12     3     4   ar
    13     4     5    1
    14     4     6   ar
    15     6     7   ar
    16     7     8   ar
    17     8     9   ar
    18     9    25    1
    19    25    26   ar
    20    25    27   ar
    21     9    10   ar
    22    10    11    2
    23    10    12   ar
    24    12    28    1
    25    28    29    1
    26    29    30    1
    27    12    13   ar
    28    13     2   ar
    29    18    14    1
    30    13     7   ar
    31    22    19    1
    32    30    28    1
    33    20    23    1
    34    20    24    1
@<TRIPOS>MOLECULE
*****
 30 34 0 0 0
SMALL
GASTEIGER

@<TRIPOS>ATOM
      1 C         140.5026  139.3944  164.1385 C.3     1  UNL1        0.0339
      2 C         141.8423  139.5875  163.4921 C.ar    1  UNL1        0.0095
      3 C         143.0215  140.0042  164.3201 C.ar    1  UNL1        0.0730
      4 C         144.3612  140.1972  163.6736 C.ar    1  UNL1        0.1531
      5 F         145.5405  140.6140  164.5017 F       1  UNL1       -0.2029
      6 C         144.5217  139.9736  162.1991 C.ar    1  UNL1        0.0323
      7 C         143.3424  139.5569  161.3711 C.ar    1  UNL1        0.0181
      8 C         143.5028  139.3332  159.8965 C.ar    1  UNL1        0.0074
      9 C         142.3236  138.9165  159.0685 C.ar    1  UNL1        0.0702
     10 C         140.9839  138.7235  159.7150 C.ar    1  UNL1        0.2618
     11 O         139.8046  138.3067  158.8869 O.2     1  UNL1       -0.2669
     12 N         140.8234  138.9471  161.1895 N.ar    1  UNL1       -0.2976
     13 C         142.0027  139.3638  162.0176 C.ar    1  UNL1        0.0597
     14 N         142.8611  140.2279  165.7947 N.pl3   1  UNL1       -0.3059
     15 C         142.8939  139.1682  166.8559 C.3     1  UNL1        0.0909
     16 C         142.6928  139.8358  168.1840 C.3     1  UNL1        0.0244
     17 C         142.5357  141.3081  167.9436 C.3     1  UNL1        0.0344
     18 C         142.6397  141.5504  166.4669 C.3     1  UNL1        0.0921
     19 C         142.3136  142.3544  168.9952 C.3     1  UNL1        0.0406
     20 N         143.7308  142.6020  169.4197 N.3     1  UNL1       -0.3231
     21 C         141.5993  143.3147  169.8994 C.3     1  UNL1        0.0156
     22 C         140.8193  142.4702  168.9359 C.3     1  UNL1        0.0156
     23 H         144.3568  142.0049  168.8793 H       1  UNL1        0.1188
     24 H         143.8305  142.3891  170.4122 H       1  UNL1        0.1188
     25 C         142.4840  138.6928  157.5939 C.2     1  UNL1        0.0775
     26 O         141.8030  139.6064  156.6183 O.co2   1  UNL1       -0.5444
     27 O         143.3253  137.5557  157.0950 O.co2   1  UNL1       -0.5444
     28 C         139.4837  138.7540  161.8359 C.3     1  UNL1        0.0885
     29 C         138.1400  139.2941  162.2266 C.3     1  UNL1        0.0246
     30 C         138.5071  137.8796  162.5649 C.3     1  UNL1        0.0246
@<TRIPOS>UNITY_ATOM_ATTR
26 1
charge -1
@<TRIPOS>BOND
     1     1     2    1
     2     2     3   ar
     3     3    14    1
     4    14    15    1
     5    15    16    1
     6    16    17    1
     7    17    19    1
     8    19    20    1
     9    19    21    1
    10    21    22    1
    11    17    18    1
    12     3     4   ar
    13     4     5    1
    14     4     6   ar
    15     6     7   ar
    16     7     8   ar
    17     8     9   ar
    18     9    25    1
    19    25    26   ar
    20    25    27   ar
    21     9    10   ar
    22    10    11    2
    23    10    12   ar
    24    12    28    1
    25    28    29    1
    26    29    30    1
    27    12    13   ar
    28    13     2   ar
    29    18    14    1
    30    13     7   ar
    31    22    19    1
    32    30    28    1
    33    20    23    1
    34    20    24    1
@<TRIPOS>MOLECULE
*****
 30 34 0 0 0
SMALL
GASTEIGER

@<TRIPOS>ATOM
      1 C         141.7258  140.3090  163.5434 C.3     1  UNL1        0.0339
      2 C         140.7725  141.4106  163.1860 C.ar    1  UNL1        0.0095
      3 C         139.6000  141.7053  164.0739 C.ar    1  UNL1        0.0730
      4 C         138.6467  142.8068  163.7165 C.ar    1  UNL1        0.1531
      5 F         137.4742  143.1015  164.6045 F       1  UNL1       -0.2029
      6 C         138.8658  143.6137  162.4712 C.ar    1  UNL1        0.0323
      7 C         140.0383  143.3190  161.5833 C.ar    1  UNL1        0.0181
      8 C         140.2575  144.1259  160.3379 C.ar    1  UNL1        0.0074
      9 C         141.4300  143.8313  159.4500 C.ar    1  UNL1        0.0702
     10 C         142.3834  142.7297  159.8074 C.ar    1  UNL1        0.2618
     11 O         143.5559  142.4351  158.9194 O.2     1  UNL1       -0.2669
     12 N         142.1642  141.9228  161.0527 N.ar    1  UNL1       -0.2976
     13 C         140.9917  142.2175  161.9407 C.ar    1  UNL1        0.0597
     14 N         139.3808  140.8983  165.3193 N.pl3   1  UNL1       -0.3059
     15 C         138.4772  139.7084  165.4512 C.3     1  UNL1        0.0909
     16 C         138.5646  139.2143  166.8648 C.3     1  UNL1        0.0244
     17 C         139.5223  140.0990  167.6066 C.3     1  UNL1        0.0344
     18 C         140.0267  141.1398  166.6514 C.3     1  UNL1        0.0921
     19 C         139.9079  139.9662  169.0501 C.3     1  UNL1        0.0406
     20 N         138.5485  139.8464  169.6728 N.3     1  UNL1       -0.3231
     21 C         140.7655  139.8750  170.2773 C.3     1  UNL1        0.0156
     22 C         141.4011  140.0399  168.9286 C.3     1  UNL1        0.0156
     23 H         137.8358  139.8921  168.9446 H       1  UNL1        0.1188
     24 H         138.4088  140.6105  170.3338 H       1  UNL1        0.1188
     25 C         141.6492  144.6382  158.2046 C.2     1  UNL1        0.0775
     26 O         142.3265  145.9741  158.2860 O.co2   1  UNL1       -0.5444
     27 O         141.1912  144.1091  156.8779 O.co2   1  UNL1       -0.5444
     28 C         143.1175  140.8213  161.4102 C.3     1  UNL1        0.0885
     29 C         143.5271  139.3806  161.3292 C.3     1  UNL1        0.0246
     30 C         144.3591  140.3541  162.1102 C.3     1  UNL1        0.0246
@<TRIPOS>UNITY_ATOM_ATTR
26 1
charge -1
@<TRIPOS>BOND
     1     1     2    1
     2     2     3   ar
     3     3    14    1
     4    14    15    1
     5    15    16    1
     6    16    17    1
     7    17    19    1
     8    19    20    1
     9    19    21    1
    10    21    22    1
    11    17    18    1
    12     3     4   ar
    13     4     5    1
    14     4     6   ar
    15     6     7   ar
    16     7     8   ar
    17     8     9   ar
    18     9    25    1
    19    25    26   ar
    20    25    27   ar
    21     9    10   ar
    22    10    11    2
    23    10    12   ar
    24    12    28    1
    25    28    29    1
    26    29    30    1
    27    12    13   ar
    28    13     2   ar
    29    18    14    1
    30    13     7   ar
    31    22    19    1
    32    30    28    1
    33    20    23    1
    34    20    24    1
@<TRIPOS>MOLECULE
*****
 30 34 0 0 0
SMALL
GASTEIGER

@<TRIPOS>ATOM
      1 C         142.3776  142.6921  164.7181 C.3     1  UNL1        0.0339
      2 C         141.7525  141.6643  163.8220 C.ar    1  UNL1        0.0095
      3 C         141.4137  140.3061  164.3606 C.ar    1  UNL1        0.0730
      4 C         140.7887  139.2783  163.4645 C.ar    1  UNL1        0.1531
      5 F         140.4499  137.9200  164.0032 F       1  UNL1       -0.2029
      6 C         140.5025  139.6089  162.0296 C.ar    1  UNL1        0.0323
      7 C         140.8413  140.9672  161.4910 C.ar    1  UNL1        0.0181
      8 C         140.5551  141.2978  160.0561 C.ar    1  UNL1        0.0074
      9 C         140.8939  142.6561  159.5174 C.ar    1  UNL1        0.0702
     10 C         141.5189  143.6838  160.4136 C.ar    1  UNL1        0.2618
     11 O         141.8577  145.0422  159.8749 O.2     1  UNL1       -0.2669
     12 N         141.8051  143.3533  161.8484 N.ar    1  UNL1       -0.2976
     13 C         141.4663  141.9949  162.3871 C.ar    1  UNL1        0.0597
     14 N         141.7000  139.9754  165.7955 N.pl3   1  UNL1       -0.3059
     15 C         142.9478  139.3284  166.3192 C.3     1  UNL1        0.0909
     16 C         142.8077  139.1869  167.8059 C.3     1  UNL1        0.0244
     17 C         141.4732  139.7464  168.2011 C.3     1  UNL1        0.0344
     18 C         140.7886  140.2337  166.9586 C.3     1  UNL1        0.0921
     19 C         140.9204  139.8078  169.5941 C.3     1  UNL1        0.0406
     20 N         142.0373  139.1477  170.3469 N.3     1  UNL1       -0.3231
     21 C         139.9797  140.0985  170.7257 C.3     1  UNL1        0.0156
     22 C         139.6115  140.4892  169.3251 C.3     1  UNL1        0.0156
     23 H         142.7766  138.8835  169.6957 H       1  UNL1        0.1188
     24 H         141.6844  138.3141  170.8170 H       1  UNL1        0.1188
     25 C         140.6076  142.9867  158.0825 C.2     1  UNL1        0.0775
     26 O         141.5815  142.5901  157.0128 O.co2   1  UNL1       -0.5444
     27 O         139.3476  143.7140  157.7174 O.co2   1  UNL1       -0.5444
     28 C         142.4301  144.3810  162.7446 C.3     1  UNL1        0.0885
     29 C         143.6531  145.0430  163.3067 C.3     1  UNL1        0.0246
     30 C         142.2897  145.4990  163.7346 C.3     1  UNL1        0.0246
@<TRIPOS>UNITY_ATOM_ATTR
26 1
charge -1
@<TRIPOS>BOND
     1     1     2    1
     2     2     3   ar
     3     3    14    1
     4    14    15    1
     5    15    16    1
     6    16    17    1
     7    17    19    1
     8    19    20    1
     9    19    21    1
    10    21    22    1
    11    17    18    1
    12     3     4   ar
    13     4     5    1
    14     4     6   ar
    15     6     7   ar
    16     7     8   ar
    17     8     9   ar
    18     9    25    1
    19    25    26   ar
    20    25    27   ar
    21     9    10   ar
    22    10    11    2
    23    10    12   ar
    24    12    28    1
    25    28    29    1
    26    29    30    1
    27    12    13   ar
    28    13     2   ar
    29    18    14    1
    30    13     7   ar
    31    22    19    1
    32    30    28    1
    33    20    23    1
    34    20    24    1
@<TRIPOS>MOLECULE
*****
 30 34 0 0 0
SMALL
GASTEIGER

@<TRIPOS>ATOM
      1 C         140.1277  142.2080  162.8981 C.3     1  UNL1        0.0339
      2 C         141.3796  142.6806  163.5760 C.ar    1  UNL1        0.0095
      3 C         142.3056  143.6242  162.8675 C.ar    1  UNL1        0.0730
      4 C         143.5575  144.0969  163.5453 C.ar    1  UNL1        0.1531
      5 F         144.4836  145.0405  162.8367 F       1  UNL1       -0.2029
      6 C         143.8833  143.6259  164.9316 C.ar    1  UNL1        0.0323
      7 C         142.9573  142.6823  165.6401 C.ar    1  UNL1        0.0181
      8 C         143.2831  142.2113  167.0265 C.ar    1  UNL1        0.0074
      9 C         142.3571  141.2677  167.7350 C.ar    1  UNL1        0.0702
     10 C         141.1052  140.7950  167.0572 C.ar    1  UNL1        0.2618
     11 O         140.1792  139.8514  167.7658 O.2     1  UNL1       -0.2669
     12 N         140.7794  141.2660  165.6709 N.ar    1  UNL1       -0.2976
     13 C         141.7054  142.2097  164.9623 C.ar    1  UNL1        0.0597
     14 N         141.9798  144.0953  161.4810 N.pl3   1  UNL1       -0.3059
     15 C         140.9522  145.1262  161.1189 C.3     1  UNL1        0.0909
     16 C         140.9617  145.2862  159.6275 C.3     1  UNL1        0.0244
     17 C         141.9952  144.3541  159.0679 C.3     1  UNL1        0.0344
     18 C         142.6245  143.6181  160.2135 C.3     1  UNL1        0.0921
     19 C         142.3391  144.1873  157.6174 C.3     1  UNL1        0.0406
     20 N         143.7219  143.6194  157.7412 N.3     1  UNL1       -0.3231
     21 C         142.2028  144.2178  156.1239 C.3     1  UNL1        0.0156
     22 C         141.0757  144.6973  156.9899 C.3     1  UNL1        0.0156
     23 H         143.9678  143.5351  158.7275 H       1  UNL1        0.1188
     24 H         144.3865  144.2384  157.2769 H       1  UNL1        0.1188
     25 C         142.6829  140.7966  169.1214 C.2     1  UNL1        0.0775
     26 O         142.9722  139.3463  169.3722 O.co2   1  UNL1       -0.5444
     27 O         142.7194  141.7759  170.2570 O.co2   1  UNL1       -0.5444
     28 C         139.5275  140.7934  164.9930 C.3     1  UNL1        0.0885
     29 C         138.8052  139.7736  164.1635 C.3     1  UNL1        0.0246
     30 C         138.0816  140.9946  164.6486 C.3     1  UNL1        0.0246
@<TRIPOS>UNITY_ATOM_ATTR
26 1
charge -1
@<TRIPOS>BOND
     1     1     2    1
     2     2     3   ar
     3     3    14    1
     4    14    15    1
     5    15    16    1
     6    16    17    1
     7    17    19    1
     8    19    20    1
     9    19    21    1
    10    21    22    1
    11    17    18    1
    12     3     4   ar
    13     4     5    1
    14     4     6   ar
    15     6     7   ar
    16     7     8   ar
    17     8     9   ar
    18     9    25    1
    19    25    26   ar
    20    25    27   ar
    21     9    10   ar
    22    10    11    2
    23    10    12   ar
    24    12    28    1
    25    28    29    1
    26    29    30    1
    27    12    13   ar
    28    13     2   ar
    29    18    14    1
    30    13     7   ar
    31    22    19    1
    32    30    28    1
    33    20    23    1
    34    20    24    1
