@<TRIPOS>MOLECULE
*****
 30 33 0 0 0
SMALL
GASTEIGER

@<TRIPOS>ATOM
      1 C         141.7531  141.3354  164.6116 C.ar    1  UNL1        0.1679
      2 C         141.7777  142.7840  165.0000 C.ar    1  UNL1        0.0702
      3 C         141.6947  143.8453  163.9433 C.ar    1  UNL1        0.1620
      4 F         141.7194  145.2940  164.3317 F       1  UNL1       -0.2026
      5 C         141.5871  143.4579  162.4982 C.ar    1  UNL1        0.1549
      6 C         141.5625  142.0093  162.1098 C.ar    1  UNL1        0.0553
      7 C         141.6455  140.9481  163.1665 C.ar    1  UNL1        0.1753
      8 F         141.6209  139.4994  162.7781 F       1  UNL1       -0.2009
      9 S         141.5041  144.5193  161.4414 S.O2    1  UNL1        0.0773
     10 O         140.0398  144.6839  161.7217 O.2     1  UNL1       -0.1498
     11 O         142.9685  144.3548  161.1611 O.2     1  UNL1       -0.1498
     12 N         141.4211  145.5807  160.3847 N.pl3   1  UNL1       -0.1936
     13 H         141.3155  146.5249  160.6427 H       1  UNL1        0.1758
     14 C         141.4990  145.2034  158.9350 C.ar    1  UNL1        0.1786
     15 N         142.2965  145.9125  157.8810 N.ar    1  UNL1       -0.2214
     16 C         142.0834  145.1981  156.5794 C.ar    1  UNL1        0.1079
     17 C         141.1541  144.0474  156.8290 C.ar    1  UNL1        0.0588
     18 S         140.7929  144.0506  158.2849 S.2     1  UNL1       -0.0497
     19 O         141.8361  140.2740  165.6684 O.3     1  UNL1       -0.4764
     20 C         139.3354  139.4679  166.1602 C.3     1  UNL1        0.0799
     21 C         138.4685  139.3854  167.3815 C.3     1  UNL1        0.0096
     22 C         139.2634  139.8898  168.5493 C.3     1  UNL1        0.0042
     23 C         140.6217  140.2841  168.0496 C.3     1  UNL1        0.0439
     24 C         140.6662  140.0233  166.5731 C.3     1  UNL1        0.1714
     25 C         137.9217  141.3915  163.9350 C.3     1  UNL1        0.1533
     26 N         138.2911  139.9498  163.7473 N.ar    1  UNL1       -0.2527
     27 N         138.0754  139.1391  162.5038 N.ar    1  UNL1       -0.1679
     28 C         138.5919  137.7540  162.7580 C.ar    1  UNL1        0.1213
     29 C         139.1268  137.7086  164.1587 C.ar    1  UNL1        0.0369
     30 C         138.9409  139.0657  164.7701 C.ar    1  UNL1        0.0603
@<TRIPOS>BOND
     1    25    26    1
     2    26    27   ar
     3    27    28   ar
     4    28    29   ar
     5    29    30   ar
     6    20    30    1
     7    20    21    1
     8    21    22    1
     9    22    23    1
    10    23    24    1
    11    24    19    1
    12    19     1    1
    13     1     2   ar
    14     2     3   ar
    15     3     4    1
    16     3     5   ar
    17     5     9    1
    18     9    10    2
    19     9    11    2
    20     9    12    1
    21    12    14    1
    22    14    15   ar
    23    15    16   ar
    24    16    17   ar
    25    17    18   ar
    26     5     6   ar
    27     6     7   ar
    28     7     8    1
    29    30    26   ar
    30    24    20    1
    31     7     1   ar
    32    18    14   ar
    33    12    13    1
@<TRIPOS>MOLECULE
*****
 30 33 0 0 0
SMALL
GASTEIGER

@<TRIPOS>ATOM
      1 C         140.3337  141.6644  164.8588 C.ar    1  UNL1        0.1679
      2 C         139.0805  142.4808  164.7453 C.ar    1  UNL1        0.0702
      3 C         138.9349  143.4811  163.6371 C.ar    1  UNL1        0.1620
      4 F         137.6816  144.2976  163.5236 F       1  UNL1       -0.2026
      5 C         140.0425  143.6651  162.6425 C.ar    1  UNL1        0.1549
      6 C         141.2957  142.8487  162.7560 C.ar    1  UNL1        0.0553
      7 C         141.4413  141.8483  163.8642 C.ar    1  UNL1        0.1753
      8 F         142.6946  141.0319  163.9778 F       1  UNL1       -0.2009
      9 S         139.8969  144.6655  161.5343 S.O2    1  UNL1        0.0773
     10 O         139.1180  143.6647  160.7333 O.2     1  UNL1       -0.1498
     11 O         140.6758  145.6663  162.3353 O.2     1  UNL1       -0.1498
     12 N         139.7512  145.6658  160.4261 N.pl3   1  UNL1       -0.1936
     13 H         139.1237  146.4183  160.5216 H       1  UNL1        0.1758
     14 C         140.5618  145.5196  159.1724 C.ar    1  UNL1        0.1786
     15 N         141.9384  144.9319  159.0760 N.ar    1  UNL1       -0.2214
     16 C         142.3654  144.9845  157.6390 C.ar    1  UNL1        0.1079
     17 C         141.2525  145.6047  156.8472 C.ar    1  UNL1        0.0588
     18 S         140.1377  145.9354  157.7950 S.2     1  UNL1       -0.0497
     19 O         140.4793  140.6640  165.9670 O.3     1  UNL1       -0.4764
     20 C         139.4209  138.3485  165.1526 C.3     1  UNL1        0.0799
     21 C         138.3174  137.4571  165.6399 C.3     1  UNL1        0.0096
     22 C         137.7256  138.0815  166.8688 C.3     1  UNL1        0.0042
     23 C         138.4634  139.3588  167.1409 C.3     1  UNL1        0.0439
     24 C         139.5112  139.5238  166.0802 C.3     1  UNL1        0.1714
     25 C         138.3771  138.0446  162.0756 C.3     1  UNL1        0.1533
     26 N         139.8031  137.9673  162.5347 N.ar    1  UNL1       -0.2527
     27 N         140.9997  137.7367  161.6600 N.ar    1  UNL1       -0.1679
     28 C         142.2189  137.7339  162.5337 C.ar    1  UNL1        0.1213
     29 C         141.7759  137.9627  163.9484 C.ar    1  UNL1        0.0369
     30 C         140.2828  138.1070  163.9490 C.ar    1  UNL1        0.0603
@<TRIPOS>BOND
     1    25    26    1
     2    26    27   ar
     3    27    28   ar
     4    28    29   ar
     5    29    30   ar
     6    20    30    1
     7    20    21    1
     8    21    22    1
     9    22    23    1
    10    23    24    1
    11    24    19    1
    12    19     1    1
    13     1     2   ar
    14     2     3   ar
    15     3     4    1
    16     3     5   ar
    17     5     9    1
    18     9    10    2
    19     9    11    2
    20     9    12    1
    21    12    14    1
    22    14    15   ar
    23    15    16   ar
    24    16    17   ar
    25    17    18   ar
    26     5     6   ar
    27     6     7   ar
    28     7     8    1
    29    30    26   ar
    30    24    20    1
    31     7     1   ar
    32    18    14   ar
    33    12    13    1
@<TRIPOS>MOLECULE
*****
 30 33 0 0 0
SMALL
GASTEIGER

@<TRIPOS>ATOM
      1 C         139.7111  141.2167  165.0197 C.ar    1  UNL1        0.1679
      2 C         139.3444  142.6324  165.3531 C.ar    1  UNL1        0.0702
      3 C         139.6140  143.7293  164.3661 C.ar    1  UNL1        0.1620
      4 F         139.2473  145.1451  164.6994 F       1  UNL1       -0.2026
      5 C         140.2503  143.4103  163.0457 C.ar    1  UNL1        0.1549
      6 C         140.6170  141.9946  162.7123 C.ar    1  UNL1        0.0553
      7 C         140.3474  140.8978  163.6993 C.ar    1  UNL1        0.1753
      8 F         140.7142  139.4820  163.3660 F       1  UNL1       -0.2009
      9 S         140.5199  144.5073  162.0586 S.O2    1  UNL1        0.0773
     10 O         139.1405  144.3382  161.4941 O.2     1  UNL1       -0.1498
     11 O         141.8993  144.6763  162.6231 O.2     1  UNL1       -0.1498
     12 N         140.7894  145.6041  161.0716 N.pl3   1  UNL1       -0.1936
     13 H         140.6931  146.5454  161.3433 H       1  UNL1        0.1758
     14 C         141.2058  145.2667  159.6705 C.ar    1  UNL1        0.1786
     15 N         142.4154  144.4715  159.2775 N.ar    1  UNL1       -0.2214
     16 C         142.4427  144.3787  157.7806 C.ar    1  UNL1        0.1079
     17 C         141.2500  145.1165  157.2485 C.ar    1  UNL1        0.0588
     18 S         140.4855  145.6654  158.4166 S.2     1  UNL1       -0.0497
     19 O         139.4415  140.1198  166.0068 O.3     1  UNL1       -0.4764
     20 C         141.7118  139.9497  167.4074 C.3     1  UNL1        0.0799
     21 C         142.0577  139.9134  168.8665 C.3     1  UNL1        0.0096
     22 C         140.7800  139.9961  169.6480 C.3     1  UNL1        0.0042
     23 C         139.6445  140.0835  168.6718 C.3     1  UNL1        0.0439
     24 C         140.2203  140.0548  167.2870 C.3     1  UNL1        0.1714
     25 C         143.1345  142.5089  165.9666 C.3     1  UNL1        0.1533
     26 N         143.3402  141.0674  165.6063 N.ar    1  UNL1       -0.2527
     27 N         144.2360  140.5491  164.5205 N.ar    1  UNL1       -0.1679
     28 C         144.1357  139.0525  164.5117 C.ar    1  UNL1        0.1213
     29 C         143.1779  138.6458  165.5921 C.ar    1  UNL1        0.0369
     30 C         142.6863  139.8911  166.2686 C.ar    1  UNL1        0.0603
@<TRIPOS>BOND
     1    25    26    1
     2    26    27   ar
     3    27    28   ar
     4    28    29   ar
     5    29    30   ar
     6    20    30    1
     7    20    21    1
     8    21    22    1
     9    22    23    1
    10    23    24    1
    11    24    19    1
    12    19     1    1
    13     1     2   ar
    14     2     3   ar
    15     3     4    1
    16     3     5   ar
    17     5     9    1
    18     9    10    2
    19     9    11    2
    20     9    12    1
    21    12    14    1
    22    14    15   ar
    23    15    16   ar
    24    16    17   ar
    25    17    18   ar
    26     5     6   ar
    27     6     7   ar
    28     7     8    1
    29    30    26   ar
    30    24    20    1
    31     7     1   ar
    32    18    14   ar
    33    12    13    1
@<TRIPOS>MOLECULE
*****
 30 33 0 0 0
SMALL
GASTEIGER

@<TRIPOS>ATOM
      1 C         139.5526  141.6308  165.3562 C.ar    1  UNL1        0.1679
      2 C         139.4436  141.2508  163.9093 C.ar    1  UNL1        0.0702
      3 C         139.7333  142.2656  162.8435 C.ar    1  UNL1        0.1620
      4 F         139.6242  141.8857  161.3964 F       1  UNL1       -0.2026
      5 C         140.1322  143.6605  163.2246 C.ar    1  UNL1        0.1549
      6 C         140.2412  144.0405  164.6715 C.ar    1  UNL1        0.0553
      7 C         139.9515  143.0257  165.7373 C.ar    1  UNL1        0.1753
      8 F         140.0606  143.4057  167.1843 F       1  UNL1       -0.2009
      9 S         140.4219  144.6754  162.1586 S.O2    1  UNL1        0.0773
     10 O         141.8579  144.2426  162.1369 O.2     1  UNL1       -0.1498
     11 O         138.9859  145.1083  162.1803 O.2     1  UNL1       -0.1498
     12 N         140.7117  145.6902  161.0928 N.pl3   1  UNL1       -0.1936
     13 H         140.7489  146.6471  161.3212 H       1  UNL1        0.1758
     14 C         140.9448  145.2471  159.6787 C.ar    1  UNL1        0.1786
     15 N         142.0449  145.7214  158.7761 N.ar    1  UNL1       -0.2214
     16 C         141.8987  145.0193  157.4587 C.ar    1  UNL1        0.1079
     17 C         140.7081  144.1111  157.5470 C.ar    1  UNL1        0.0588
     18 S         140.1186  144.2519  158.9192 S.2     1  UNL1       -0.0497
     19 O         139.2629  140.6159  166.4221 O.3     1  UNL1       -0.4764
     20 C         141.6973  139.7076  167.0495 C.3     1  UNL1        0.0799
     21 C         142.4351  139.4478  168.3294 C.3     1  UNL1        0.0096
     22 C         141.5274  139.8059  169.4686 C.3     1  UNL1        0.0042
     23 C         140.2286  140.2871  168.8928 C.3     1  UNL1        0.0439
     24 C         140.3336  140.2263  167.3977 C.3     1  UNL1        0.1714
     25 C         143.4455  141.8406  165.3049 C.3     1  UNL1        0.1533
     26 N         143.0332  140.4678  164.8627 N.ar    1  UNL1       -0.2527
     27 N         143.3522  139.8344  163.5409 N.ar    1  UNL1       -0.1679
     28 C         142.7458  138.4625  163.5259 C.ar    1  UNL1        0.1213
     29 C         142.0520  138.2481  164.8384 C.ar    1  UNL1        0.0369
     30 C         142.2297  139.4874  165.6646 C.ar    1  UNL1        0.0603
@<TRIPOS>BOND
     1    25    26    1
     2    26    27   ar
     3    27    28   ar
     4    28    29   ar
     5    29    30   ar
     6    20    30    1
     7    20    21    1
     8    21    22    1
     9    22    23    1
    10    23    24    1
    11    24    19    1
    12    19     1    1
    13     1     2   ar
    14     2     3   ar
    15     3     4    1
    16     3     5   ar
    17     5     9    1
    18     9    10    2
    19     9    11    2
    20     9    12    1
    21    12    14    1
    22    14    15   ar
    23    15    16   ar
    24    16    17   ar
    25    17    18   ar
    26     5     6   ar
    27     6     7   ar
    28     7     8    1
    29    30    26   ar
    30    24    20    1
    31     7     1   ar
    32    18    14   ar
    33    12    13    1
@<TRIPOS>MOLECULE
*****
 30 33 0 0 0
SMALL
GASTEIGER

@<TRIPOS>ATOM
      1 C         141.3667  141.2422  163.9929 C.ar    1  UNL1        0.1679
      2 C         141.4209  140.9305  162.5266 C.ar    1  UNL1        0.0702
      3 C         141.3733  142.0426  161.5212 C.ar    1  UNL1        0.1620
      4 F         141.4275  141.7309  160.0549 F       1  UNL1       -0.2026
      5 C         141.2717  143.4665  161.9820 C.ar    1  UNL1        0.1549
      6 C         141.2175  143.7782  163.4483 C.ar    1  UNL1        0.0553
      7 C         141.2650  142.6661  164.4537 C.ar    1  UNL1        0.1753
      8 F         141.2109  142.9778  165.9200 F       1  UNL1       -0.2009
      9 S         141.2242  144.5786  160.9765 S.O2    1  UNL1        0.0773
     10 O         142.7064  144.4624  160.7781 O.2     1  UNL1       -0.1498
     11 O         139.7419  144.6948  161.1750 O.2     1  UNL1       -0.1498
     12 N         141.1767  145.6907  159.9711 N.pl3   1  UNL1       -0.1936
     13 H         141.2018  146.6277  160.2720 H       1  UNL1        0.1758
     14 C         141.0909  145.3751  158.5071 C.ar    1  UNL1        0.1786
     15 N         140.0511  144.5168  157.8496 N.ar    1  UNL1       -0.2214
     16 C         140.3475  144.4736  156.3799 C.ar    1  UNL1        0.1079
     17 C         141.5704  145.3052  156.1289 C.ar    1  UNL1        0.0588
     18 S         142.0299  145.8623  157.4437 S.2     1  UNL1       -0.0497
     19 O         141.4142  140.1301  164.9984 O.3     1  UNL1       -0.4764
     20 C         138.8823  139.3200  165.2778 C.3     1  UNL1        0.0799
     21 C         137.9548  139.1197  166.4395 C.3     1  UNL1        0.0096
     22 C         138.6972  139.4788  167.6926 C.3     1  UNL1        0.0042
     23 C         140.0834  139.9009  167.3052 C.3     1  UNL1        0.0439
     24 C         140.1978  139.8028  165.8128 C.3     1  UNL1        0.1714
     25 C         137.4924  141.4621  163.2455 C.3     1  UNL1        0.1533
     26 N         137.9133  140.0643  162.9003 N.ar    1  UNL1       -0.2527
     27 N         137.7693  139.4056  161.5603 N.ar    1  UNL1       -0.1679
     28 C         138.3191  138.0141  161.6663 C.ar    1  UNL1        0.1213
     29 C         138.8029  137.8127  163.0718 C.ar    1  UNL1        0.0369
     30 C         138.5522  139.0797  163.8344 C.ar    1  UNL1        0.0603
@<TRIPOS>BOND
     1    25    26    1
     2    26    27   ar
     3    27    28   ar
     4    28    29   ar
     5    29    30   ar
     6    20    30    1
     7    20    21    1
     8    21    22    1
     9    22    23    1
    10    23    24    1
    11    24    19    1
    12    19     1    1
    13     1     2   ar
    14     2     3   ar
    15     3     4    1
    16     3     5   ar
    17     5     9    1
    18     9    10    2
    19     9    11    2
    20     9    12    1
    21    12    14    1
    22    14    15   ar
    23    15    16   ar
    24    16    17   ar
    25    17    18   ar
    26     5     6   ar
    27     6     7   ar
    28     7     8    1
    29    30    26   ar
    30    24    20    1
    31     7     1   ar
    32    18    14   ar
    33    12    13    1
@<TRIPOS>MOLECULE
*****
 30 33 0 0 0
SMALL
GASTEIGER

@<TRIPOS>ATOM
      1 C         140.2234  142.1295  164.7913 C.ar    1  UNL1        0.1679
      2 C         140.8356  143.4852  164.9843 C.ar    1  UNL1        0.0702
      3 C         141.1561  144.3396  163.7939 C.ar    1  UNL1        0.1620
      4 F         141.7682  145.6954  163.9869 F       1  UNL1       -0.2026
      5 C         140.8644  143.8384  162.4106 C.ar    1  UNL1        0.1549
      6 C         140.2522  142.4827  162.2176 C.ar    1  UNL1        0.0553
      7 C         139.9317  141.6282  163.4080 C.ar    1  UNL1        0.1753
      8 F         139.3196  140.2725  163.2150 F       1  UNL1       -0.2009
      9 S         141.1849  144.6930  161.2201 S.O2    1  UNL1        0.0773
     10 O         142.6399  144.3627  161.3748 O.2     1  UNL1       -0.1498
     11 O         139.7300  145.0233  161.0654 O.2     1  UNL1       -0.1498
     12 N         141.5055  145.5475  160.0298 N.pl3   1  UNL1       -0.1936
     13 H         141.9805  146.4014  160.1504 H       1  UNL1        0.1758
     14 C         141.1024  145.1011  158.6556 C.ar    1  UNL1        0.1786
     15 N         141.3449  143.7448  158.0626 N.ar    1  UNL1       -0.2214
     16 C         140.7784  143.7380  156.6737 C.ar    1  UNL1        0.1079
     17 C         140.1857  145.0902  156.4083 C.ar    1  UNL1        0.0588
     18 S         140.3860  145.9326  157.6332 S.2     1  UNL1       -0.0497
     19 O         139.9029  141.2749  165.9818 O.3     1  UNL1       -0.4764
     20 C         141.8500  139.4753  166.3209 C.3     1  UNL1        0.0799
     21 C         142.8309  139.1670  167.4129 C.3     1  UNL1        0.0096
     22 C         142.5974  140.1369  168.5332 C.3     1  UNL1        0.0042
     23 C         141.4721  141.0445  168.1334 C.3     1  UNL1        0.0439
     24 C         141.0102  140.6357  166.7661 C.3     1  UNL1        0.1714
     25 C         143.4287  140.2194  163.5633 C.3     1  UNL1        0.1533
     26 N         142.4556  139.0925  163.7457 N.ar    1  UNL1       -0.2527
     27 N         142.0373  138.1097  162.6924 N.ar    1  UNL1       -0.1679
     28 C         141.0532  137.1603  163.3090 C.ar    1  UNL1        0.1213
     29 C         140.8632  137.5563  164.7433 C.ar    1  UNL1        0.0369
     30 C         141.7300  138.7505  165.0131 C.ar    1  UNL1        0.0603
@<TRIPOS>BOND
     1    25    26    1
     2    26    27   ar
     3    27    28   ar
     4    28    29   ar
     5    29    30   ar
     6    20    30    1
     7    20    21    1
     8    21    22    1
     9    22    23    1
    10    23    24    1
    11    24    19    1
    12    19     1    1
    13     1     2   ar
    14     2     3   ar
    15     3     4    1
    16     3     5   ar
    17     5     9    1
    18     9    10    2
    19     9    11    2
    20     9    12    1
    21    12    14    1
    22    14    15   ar
    23    15    16   ar
    24    16    17   ar
    25    17    18   ar
    26     5     6   ar
    27     6     7   ar
    28     7     8    1
    29    30    26   ar
    30    24    20    1
    31     7     1   ar
    32    18    14   ar
    33    12    13    1
@<TRIPOS>MOLECULE
*****
 30 33 0 0 0
SMALL
GASTEIGER

@<TRIPOS>ATOM
      1 C         139.9447  139.5985  166.5898 C.ar    1  UNL1        0.1679
      2 C         141.3635  139.1229  166.6940 C.ar    1  UNL1        0.0702
      3 C         142.0772  138.6194  165.4745 C.ar    1  UNL1        0.1620
      4 F         143.4960  138.1438  165.5787 F       1  UNL1       -0.2026
      5 C         141.3721  138.5915  164.1508 C.ar    1  UNL1        0.1549
      6 C         139.9533  139.0671  164.0467 C.ar    1  UNL1        0.0553
      7 C         139.2397  139.5706  165.2661 C.ar    1  UNL1        0.1753
      8 F         137.8208  140.0462  165.1620 F       1  UNL1       -0.2009
      9 S         142.0858  138.0880  162.9313 S.O2    1  UNL1        0.0773
     10 O         141.2161  136.8659  162.9270 O.2     1  UNL1       -0.1498
     11 O         142.9556  139.3100  162.9357 O.2     1  UNL1       -0.1498
     12 N         142.7995  137.5844  161.7119 N.pl3   1  UNL1       -0.1936
     13 H         143.5705  136.9797  161.8074 H       1  UNL1        0.1758
     14 C         142.3385  138.0023  160.3470 C.ar    1  UNL1        0.1786
     15 N         143.0720  137.7703  159.0593 N.ar    1  UNL1       -0.2214
     16 C         142.2499  138.3502  157.9466 C.ar    1  UNL1        0.1079
     17 C         141.0084  138.9407  158.5467 C.ar    1  UNL1        0.0588
     18 S         141.0632  138.7256  160.0303 S.2     1  UNL1       -0.0497
     19 O         139.2310  140.1020  167.8093 O.3     1  UNL1       -0.4764
     20 C         140.4924  142.4426  168.0833 C.3     1  UNL1        0.0799
     21 C         140.9413  143.2757  169.2471 C.3     1  UNL1        0.0096
     22 C         140.5548  142.5589  170.5068 C.3     1  UNL1        0.0042
     23 C         139.8671  141.2827  170.1215 C.3     1  UNL1        0.0439
     24 C         139.8285  141.2109  168.6237 C.3     1  UNL1        0.1714
     25 C         143.2891  142.2680  166.4105 C.3     1  UNL1        0.1533
     26 N         141.9608  142.7015  165.8647 N.ar    1  UNL1       -0.2527
     27 N         141.6848  143.1309  164.4542 N.ar    1  UNL1       -0.1679
     28 C         140.2288  143.4765  164.3514 C.ar    1  UNL1        0.1213
     29 C         139.6049  143.2607  165.6984 C.ar    1  UNL1        0.0369
     30 C         140.6753  142.7818  166.6336 C.ar    1  UNL1        0.0603
@<TRIPOS>BOND
     1    25    26    1
     2    26    27   ar
     3    27    28   ar
     4    28    29   ar
     5    29    30   ar
     6    20    30    1
     7    20    21    1
     8    21    22    1
     9    22    23    1
    10    23    24    1
    11    24    19    1
    12    19     1    1
    13     1     2   ar
    14     2     3   ar
    15     3     4    1
    16     3     5   ar
    17     5     9    1
    18     9    10    2
    19     9    11    2
    20     9    12    1
    21    12    14    1
    22    14    15   ar
    23    15    16   ar
    24    16    17   ar
    25    17    18   ar
    26     5     6   ar
    27     6     7   ar
    28     7     8    1
    29    30    26   ar
    30    24    20    1
    31     7     1   ar
    32    18    14   ar
    33    12    13    1
@<TRIPOS>MOLECULE
*****
 30 33 0 0 0
SMALL
GASTEIGER

@<TRIPOS>ATOM
      1 C         141.6886  143.0268  165.3640 C.ar    1  UNL1        0.1679
      2 C         140.2136  143.1919  165.1472 C.ar    1  UNL1        0.0702
      3 C         139.7056  143.7850  163.8666 C.ar    1  UNL1        0.1620
      4 F         138.2305  143.9500  163.6497 F       1  UNL1       -0.2026
      5 C         140.6726  144.2131  162.8028 C.ar    1  UNL1        0.1549
      6 C         142.1476  144.0481  163.0196 C.ar    1  UNL1        0.0553
      7 C         142.6556  143.4549  164.3002 C.ar    1  UNL1        0.1753
      8 F         144.1307  143.2899  164.5171 F       1  UNL1       -0.2009
      9 S         140.1644  144.8062  161.5221 S.O2    1  UNL1        0.0773
     10 O         140.1097  143.4379  160.9101 O.2     1  UNL1       -0.1498
     11 O         140.2192  146.1746  162.1341 O.2     1  UNL1       -0.1498
     12 N         139.6563  145.3993  160.2415 N.pl3   1  UNL1       -0.1936
     13 H         138.7802  145.8478  160.2202 H       1  UNL1        0.1758
     14 C         140.4831  145.3090  158.9931 C.ar    1  UNL1        0.1786
     15 N         141.9411  145.6415  158.8752 N.ar    1  UNL1       -0.2214
     16 C         142.3561  145.4084  157.4528 C.ar    1  UNL1        0.1079
     17 C         141.1546  144.9318  156.6915 C.ar    1  UNL1        0.0588
     18 S         139.9970  144.8705  157.6435 S.2     1  UNL1       -0.0497
     19 O         142.1968  142.4337  166.6447 O.3     1  UNL1       -0.4764
     20 C         140.4655  140.6452  167.6187 C.3     1  UNL1        0.0799
     21 C         139.6190  140.5518  168.8535 C.3     1  UNL1        0.0096
     22 C         139.8591  141.7841  169.6743 C.3     1  UNL1        0.0042
     23 C         140.8540  142.6391  168.9468 C.3     1  UNL1        0.0439
     24 C         141.2287  141.9351  167.6763 C.3     1  UNL1        0.1714
     25 C         143.0983  138.9101  166.7775 C.3     1  UNL1        0.1533
     26 N         141.7464  138.8297  166.1326 N.ar    1  UNL1       -0.2527
     27 N         141.3673  137.9377  164.9878 N.ar    1  UNL1       -0.1679
     28 C         139.9228  138.1838  164.6669 C.ar    1  UNL1        0.1213
     29 C         139.4092  139.2281  165.6134 C.ar    1  UNL1        0.0369
     30 C         140.5362  139.6272  166.5192 C.ar    1  UNL1        0.0603
@<TRIPOS>BOND
     1    25    26    1
     2    26    27   ar
     3    27    28   ar
     4    28    29   ar
     5    29    30   ar
     6    20    30    1
     7    20    21    1
     8    21    22    1
     9    22    23    1
    10    23    24    1
    11    24    19    1
    12    19     1    1
    13     1     2   ar
    14     2     3   ar
    15     3     4    1
    16     3     5   ar
    17     5     9    1
    18     9    10    2
    19     9    11    2
    20     9    12    1
    21    12    14    1
    22    14    15   ar
    23    15    16   ar
    24    16    17   ar
    25    17    18   ar
    26     5     6   ar
    27     6     7   ar
    28     7     8    1
    29    30    26   ar
    30    24    20    1
    31     7     1   ar
    32    18    14   ar
    33    12    13    1
@<TRIPOS>MOLECULE
*****
 30 33 0 0 0
SMALL
GASTEIGER

@<TRIPOS>ATOM
      1 C         141.4435  142.2805  165.0684 C.ar    1  UNL1        0.1679
      2 C         142.8563  141.7902  165.1836 C.ar    1  UNL1        0.0702
      3 C         143.7850  141.8962  164.0104 C.ar    1  UNL1        0.1620
      4 F         145.1979  141.4058  164.1256 F       1  UNL1       -0.2026
      5 C         143.3007  142.4924  162.7220 C.ar    1  UNL1        0.1549
      6 C         141.8878  142.9827  162.6068 C.ar    1  UNL1        0.0553
      7 C         140.9592  142.8768  163.7800 C.ar    1  UNL1        0.1753
      8 F         139.5462  143.3671  163.6648 F       1  UNL1       -0.2009
      9 S         144.2294  142.5983  161.5488 S.O2    1  UNL1        0.0773
     10 O         143.9557  141.1647  161.2028 O.2     1  UNL1       -0.1498
     11 O         144.5031  144.0319  161.8948 O.2     1  UNL1       -0.1498
     12 N         145.1581  142.7042  160.3756 N.pl3   1  UNL1       -0.1936
     13 H         146.1309  142.7484  160.5203 H       1  UNL1        0.1758
     14 C         144.6045  142.7428  158.9820 C.ar    1  UNL1        0.1786
     15 N         143.2960  143.3491  158.5695 N.ar    1  UNL1       -0.2214
     16 C         143.1452  143.1628  157.0887 C.ar    1  UNL1        0.1079
     17 C         144.3605  142.4414  156.5861 C.ar    1  UNL1        0.0588
     18 S         145.2624  142.1817  157.7563 S.2     1  UNL1       -0.0497
     19 O         140.5147  142.1746  166.2416 O.3     1  UNL1       -0.4764
     20 C         139.4932  140.1056  167.5908 C.3     1  UNL1        0.0799
     21 C         138.4811  139.0398  167.2914 C.3     1  UNL1        0.0096
     22 C         137.9767  139.2584  165.8957 C.3     1  UNL1        0.0042
     23 C         138.6772  140.4593  165.3326 C.3     1  UNL1        0.0439
     24 C         139.6144  140.9829  166.3802 C.3     1  UNL1        0.1714
     25 C         142.6486  139.4144  168.0555 C.3     1  UNL1        0.1533
     26 N         141.7013  139.9482  169.0889 N.ar    1  UNL1       -0.2527
     27 N         142.0382  140.2580  170.5174 N.ar    1  UNL1       -0.1679
     28 C         140.7961  140.7672  171.1867 C.ar    1  UNL1        0.1213
     29 C         139.6915  140.7720  170.1718 C.ar    1  UNL1        0.0369
     30 C         140.2510  140.2659  168.8753 C.ar    1  UNL1        0.0603
@<TRIPOS>BOND
     1    25    26    1
     2    26    27   ar
     3    27    28   ar
     4    28    29   ar
     5    29    30   ar
     6    20    30    1
     7    20    21    1
     8    21    22    1
     9    22    23    1
    10    23    24    1
    11    24    19    1
    12    19     1    1
    13     1     2   ar
    14     2     3   ar
    15     3     4    1
    16     3     5   ar
    17     5     9    1
    18     9    10    2
    19     9    11    2
    20     9    12    1
    21    12    14    1
    22    14    15   ar
    23    15    16   ar
    24    16    17   ar
    25    17    18   ar
    26     5     6   ar
    27     6     7   ar
    28     7     8    1
    29    30    26   ar
    30    24    20    1
    31     7     1   ar
    32    18    14   ar
    33    12    13    1
