@<TRIPOS>MOLECULE
*****
 35 39 0 0 0
SMALL
GASTEIGER

@<TRIPOS>ATOM
      1 C         141.2295  137.7232  162.9659 C.ar    1  UNL1        0.0644
      2 C         139.7417  137.9064  163.0196 C.ar    1  UNL1        0.0155
      3 C         139.1013  138.4870  164.2455 C.ar    1  UNL1       -0.0032
      4 C         139.9487  138.8845  165.4177 C.ar    1  UNL1       -0.0246
      5 C         141.4364  138.7013  165.3639 C.ar    1  UNL1       -0.0234
      6 C         142.0769  138.1207  164.1381 C.ar    1  UNL1        0.0113
      7 C         142.4575  139.0286  166.4129 C.3     1  UNL1        0.0434
      8 C         142.2429  139.6200  167.7747 C.3     1  UNL1        0.0771
      9 N         140.9543  140.0300  168.4237 N.3     1  UNL1       -0.2671
     10 C         139.5620  139.9500  167.8714 C.3     1  UNL1        0.0771
     11 C         139.1144  139.4402  166.5336 C.3     1  UNL1        0.0434
     12 N         141.8699  137.1426  161.7401 N.pl3   1  UNL1       -0.2150
     13 H         141.9026  136.1663  161.6172 H       1  UNL1        0.1737
     14 O         141.0999  138.2494  160.1024 O.2     1  UNL1       -0.1499
     15 S         142.4605  138.0494  160.7014 S.O2    1  UNL1        0.0751
     16 O         143.8211  137.8495  161.3004 O.2     1  UNL1       -0.1499
     17 C         143.0510  138.9563  159.6627 C.ar    1  UNL1        0.1443
     18 C         143.5622  140.3114  160.0534 C.ar    1  UNL1        0.0246
     19 C         144.1528  141.2182  159.0146 C.ar    1  UNL1        0.0357
     20 C         144.2322  140.7701  157.5853 C.ar    1  UNL1        0.1319
     21 N         143.7210  139.4150  157.1947 N.ar    1  UNL1       -0.2278
     22 C         143.1304  138.5081  158.2334 C.ar    1  UNL1        0.1204
     23 N         144.8227  141.6768  156.5466 N.pl3   1  UNL1       -0.2881
     24 C         146.3024  141.9215  156.5185 C.3     1  UNL1        0.1242
     25 C         146.8930  142.8283  155.4798 C.3     1  UNL1        0.1636
     26 O         146.0040  143.4904  154.4692 O.3     1  UNL1       -0.3501
     27 C         144.5243  143.2457  154.4974 C.3     1  UNL1        0.1636
     28 C         143.9337  142.3390  155.5360 C.3     1  UNL1        0.1242
     29 C         141.0738  140.5947  169.8082 C.3     1  UNL1        0.1180
     30 C         140.5766  141.9798  170.0988 C.ar    1  UNL1        0.0693
     31 C         141.1273  143.2524  169.5267 C.ar    1  UNL1        0.0379
     32 C         140.3325  144.3945  170.0869 C.ar    1  UNL1        0.1211
     33 N         139.2905  143.8279  171.0051 N.ar    1  UNL1       -0.1713
     34 N         139.4414  142.3354  171.0126 N.ar    1  UNL1       -0.2784
     35 H         138.8918  141.7008  171.5268 H       1  UNL1        0.1886
@<TRIPOS>BOND
     1    14    15    2
     2    15    16    2
     3    15    12    1
     4    12     1    1
     5     1     2   ar
     6     2     3   ar
     7     3     4   ar
     8     4     5   ar
     9     5     6   ar
    10     5     7    1
    11     7     8    1
    12     8     9    1
    13     9    29    1
    14    29    30    1
    15    30    31   ar
    16    31    32   ar
    17    32    33   ar
    18    33    34   ar
    19     9    10    1
    20    10    11    1
    21    15    17    1
    22    17    18   ar
    23    18    19   ar
    24    19    20   ar
    25    20    23    1
    26    23    24    1
    27    24    25    1
    28    25    26    1
    29    26    27    1
    30    27    28    1
    31    20    21   ar
    32    21    22   ar
    33     6     1   ar
    34    34    30   ar
    35    22    17   ar
    36    11     4    1
    37    28    23    1
    38    12    13    1
    39    34    35    1
@<TRIPOS>MOLECULE
*****
 35 39 0 0 0
SMALL
GASTEIGER

@<TRIPOS>ATOM
      1 C         141.2908  144.5806  159.8510 C.ar    1  UNL1        0.0644
      2 C         141.1400  145.5830  158.7454 C.ar    1  UNL1        0.0155
      3 C         140.2625  145.2753  157.5685 C.ar    1  UNL1       -0.0032
      4 C         139.5356  143.9650  157.4972 C.ar    1  UNL1       -0.0246
      5 C         139.6864  142.9627  158.6027 C.ar    1  UNL1       -0.0234
      6 C         140.5640  143.2703  159.7797 C.ar    1  UNL1        0.0113
      7 C         139.0562  141.6072  158.7287 C.3     1  UNL1        0.0434
      8 C         138.1196  140.9196  157.7800 C.3     1  UNL1        0.0771
      9 N         137.5819  141.4175  156.4713 N.3     1  UNL1       -0.2671
     10 C         137.8479  142.7259  155.7878 C.3     1  UNL1        0.0771
     11 C         138.7174  143.8597  156.2444 C.3     1  UNL1        0.0434
     12 N         142.1684  144.8884  161.0279 N.pl3   1  UNL1       -0.2150
     13 H         142.9835  145.4271  160.9066 H       1  UNL1        0.1737
     14 O         140.7052  145.3925  162.4788 O.2     1  UNL1       -0.1499
     15 S         141.8041  144.3754  162.3896 S.O2    1  UNL1        0.0751
     16 O         142.9030  143.3583  162.3004 O.2     1  UNL1       -0.1499
     17 C         141.4397  143.8624  163.7512 C.ar    1  UNL1        0.1443
     18 C         140.0755  144.1316  164.3139 C.ar    1  UNL1        0.0246
     19 C         139.7113  143.6186  165.6755 C.ar    1  UNL1        0.0357
     20 C         140.7111  142.8364  166.4746 C.ar    1  UNL1        0.1319
     21 N         142.0753  142.5672  165.9119 N.ar    1  UNL1       -0.2278
     22 C         142.4396  143.0802  164.5503 C.ar    1  UNL1        0.1204
     23 N         140.3469  142.3233  167.8362 N.pl3   1  UNL1       -0.2881
     24 C         139.9311  140.8929  168.0121 C.3     1  UNL1        0.1242
     25 C         139.5669  140.3797  169.3738 C.3     1  UNL1        0.1636
     26 O         139.6184  141.2971  170.5595 O.3     1  UNL1       -0.3501
     27 C         140.0342  142.7276  170.3835 C.3     1  UNL1        0.1636
     28 C         140.3984  143.2406  169.0219 C.3     1  UNL1        0.1242
     29 C         136.6556  140.4833  155.7506 C.3     1  UNL1        0.1180
     30 C         135.1786  140.5474  156.0047 C.ar    1  UNL1        0.0693
     31 C         134.1730  141.2914  155.1769 C.ar    1  UNL1        0.0379
     32 C         132.8209  141.0825  155.7918 C.ar    1  UNL1        0.1211
     33 N         132.9908  140.2094  156.9996 N.ar    1  UNL1       -0.1713
     34 N         134.4480  139.8787  157.1312 N.ar    1  UNL1       -0.2784
     35 H         134.8537  139.3207  157.8336 H       1  UNL1        0.1886
@<TRIPOS>BOND
     1    14    15    2
     2    15    16    2
     3    15    12    1
     4    12     1    1
     5     1     2   ar
     6     2     3   ar
     7     3     4   ar
     8     4     5   ar
     9     5     6   ar
    10     5     7    1
    11     7     8    1
    12     8     9    1
    13     9    29    1
    14    29    30    1
    15    30    31   ar
    16    31    32   ar
    17    32    33   ar
    18    33    34   ar
    19     9    10    1
    20    10    11    1
    21    15    17    1
    22    17    18   ar
    23    18    19   ar
    24    19    20   ar
    25    20    23    1
    26    23    24    1
    27    24    25    1
    28    25    26    1
    29    26    27    1
    30    27    28    1
    31    20    21   ar
    32    21    22   ar
    33     6     1   ar
    34    34    30   ar
    35    22    17   ar
    36    11     4    1
    37    28    23    1
    38    12    13    1
    39    34    35    1
@<TRIPOS>MOLECULE
*****
 35 39 0 0 0
SMALL
GASTEIGER

@<TRIPOS>ATOM
      1 C         144.1592  139.5248  162.3916 C.ar    1  UNL1        0.0644
      2 C         144.3869  141.0061  162.3287 C.ar    1  UNL1        0.0155
      3 C         144.1588  141.8523  163.5461 C.ar    1  UNL1       -0.0032
      4 C         143.7030  141.2171  164.8263 C.ar    1  UNL1       -0.0246
      5 C         143.4753  139.7359  164.8891 C.ar    1  UNL1       -0.0234
      6 C         143.7034  138.8897  163.6718 C.ar    1  UNL1        0.0113
      7 C         143.0247  138.9075  166.0557 C.3     1  UNL1        0.0434
      8 C         142.6904  139.3559  167.4475 C.3     1  UNL1        0.0771
      9 N         142.7242  140.7433  168.0165 N.3     1  UNL1       -0.2671
     10 C         143.1006  142.0251  167.3343 C.3     1  UNL1        0.0771
     11 C         143.5362  142.2359  165.9145 C.3     1  UNL1        0.0434
     12 N         144.3873  138.6787  161.1742 N.pl3   1  UNL1       -0.2150
     13 H         145.2146  138.1518  161.0889 H       1  UNL1        0.1737
     14 O         144.1959  139.5553  159.2519 O.2     1  UNL1       -0.1499
     15 S         143.3550  138.6355  160.0868 S.O2    1  UNL1        0.0751
     16 O         142.5142  137.7156  160.9216 O.2     1  UNL1       -0.1499
     17 C         142.3227  138.5922  158.9994 C.ar    1  UNL1        0.1443
     18 C         140.9112  139.0099  159.2882 C.ar    1  UNL1        0.0246
     19 C         139.8790  138.9666  158.2007 C.ar    1  UNL1        0.0357
     20 C         140.2580  138.5057  156.8245 C.ar    1  UNL1        0.1319
     21 N         141.6695  138.0880  156.5357 N.ar    1  UNL1       -0.2278
     22 C         142.7018  138.1313  157.6232 C.ar    1  UNL1        0.1204
     23 N         139.2258  138.4624  155.7371 N.pl3   1  UNL1       -0.2881
     24 C         138.2967  139.6232  155.5384 C.3     1  UNL1        0.1242
     25 C         137.2644  139.5800  154.4509 C.3     1  UNL1        0.1636
     26 O         137.1612  138.3760  153.5622 O.3     1  UNL1       -0.3501
     27 C         138.0903  137.2152  153.7610 C.3     1  UNL1        0.1636
     28 C         139.1225  137.2585  154.8484 C.3     1  UNL1        0.1242
     29 C         142.3293  140.8652  169.4585 C.3     1  UNL1        0.1180
     30 C         140.9537  140.4577  169.8965 C.ar    1  UNL1        0.0693
     31 C         139.6639  140.8794  169.2574 C.ar    1  UNL1        0.0379
     32 C         138.5396  140.2393  170.0165 C.ar    1  UNL1        0.1211
     33 N         139.1345  139.4221  171.1247 N.ar    1  UNL1       -0.1713
     34 N         140.6266  139.5570  171.0506 N.ar    1  UNL1       -0.2784
     35 H         141.2770  139.1296  171.6535 H       1  UNL1        0.1886
@<TRIPOS>BOND
     1    14    15    2
     2    15    16    2
     3    15    12    1
     4    12     1    1
     5     1     2   ar
     6     2     3   ar
     7     3     4   ar
     8     4     5   ar
     9     5     6   ar
    10     5     7    1
    11     7     8    1
    12     8     9    1
    13     9    29    1
    14    29    30    1
    15    30    31   ar
    16    31    32   ar
    17    32    33   ar
    18    33    34   ar
    19     9    10    1
    20    10    11    1
    21    15    17    1
    22    17    18   ar
    23    18    19   ar
    24    19    20   ar
    25    20    23    1
    26    23    24    1
    27    24    25    1
    28    25    26    1
    29    26    27    1
    30    27    28    1
    31    20    21   ar
    32    21    22   ar
    33     6     1   ar
    34    34    30   ar
    35    22    17   ar
    36    11     4    1
    37    28    23    1
    38    12    13    1
    39    34    35    1
@<TRIPOS>MOLECULE
*****
 35 39 0 0 0
SMALL
GASTEIGER

@<TRIPOS>ATOM
      1 C         142.2657  144.4679  162.1673 C.ar    1  UNL1        0.0644
      2 C         143.6136  144.6137  162.8091 C.ar    1  UNL1        0.0155
      3 C         143.9075  143.9150  164.1035 C.ar    1  UNL1       -0.0032
      4 C         142.8534  143.0704  164.7560 C.ar    1  UNL1       -0.0246
      5 C         141.5057  142.9246  164.1142 C.ar    1  UNL1       -0.0234
      6 C         141.2117  143.6233  162.8199 C.ar    1  UNL1        0.0113
      7 C         140.3221  142.1370  164.5929 C.3     1  UNL1        0.0434
      8 C         140.1942  141.3008  165.8316 C.3     1  UNL1        0.0771
      9 N         141.2182  141.0456  166.8975 N.3     1  UNL1       -0.2671
     10 C         142.6230  141.5636  166.9881 C.3     1  UNL1        0.0771
     11 C         143.3508  142.4647  166.0351 C.3     1  UNL1        0.0434
     12 N         141.9719  145.1666  160.8729 N.pl3   1  UNL1       -0.2150
     13 H         142.4300  146.0100  160.6537 H       1  UNL1        0.1737
     14 O         142.0213  143.6170  159.4250 O.2     1  UNL1       -0.1499
     15 S         140.9799  144.5803  159.9125 S.O2    1  UNL1        0.0751
     16 O         139.9385  145.5435  160.4000 O.2     1  UNL1       -0.1499
     17 C         139.9880  143.9940  158.9521 C.ar    1  UNL1        0.1443
     18 C         139.0693  142.8960  159.3999 C.ar    1  UNL1        0.0246
     19 C         138.0775  142.3097  158.4394 C.ar    1  UNL1        0.0357
     20 C         138.0042  142.8213  157.0313 C.ar    1  UNL1        0.1319
     21 N         138.9229  143.9194  156.5835 N.ar    1  UNL1       -0.2278
     22 C         139.9148  144.5057  157.5439 C.ar    1  UNL1        0.1204
     23 N         137.0123  142.2351  156.0708 N.pl3   1  UNL1       -0.2881
     24 C         136.8082  142.8660  154.7253 C.3     1  UNL1        0.1242
     25 C         135.8164  142.2798  153.7648 C.3     1  UNL1        0.1636
     26 O         135.0286  141.0627  154.1498 O.3     1  UNL1       -0.3501
     27 C         135.2327  140.4319  155.4953 C.3     1  UNL1        0.1636
     28 C         136.2245  141.0181  156.4557 C.3     1  UNL1        0.1242
     29 C         140.7794  140.1546  168.0216 C.3     1  UNL1        0.1180
     30 C         140.6450  140.7085  169.4091 C.ar    1  UNL1        0.0693
     31 C         140.2165  142.1012  169.7649 C.ar    1  UNL1        0.0379
     32 C         140.2223  142.2203  171.2601 C.ar    1  UNL1        0.1211
     33 N         140.6544  140.9011  171.8285 N.ar    1  UNL1       -0.1713
     34 N         140.9157  139.9667  170.6845 N.ar    1  UNL1       -0.2784
     35 H         141.2127  139.0309  170.7579 H       1  UNL1        0.1886
@<TRIPOS>BOND
     1    14    15    2
     2    15    16    2
     3    15    12    1
     4    12     1    1
     5     1     2   ar
     6     2     3   ar
     7     3     4   ar
     8     4     5   ar
     9     5     6   ar
    10     5     7    1
    11     7     8    1
    12     8     9    1
    13     9    29    1
    14    29    30    1
    15    30    31   ar
    16    31    32   ar
    17    32    33   ar
    18    33    34   ar
    19     9    10    1
    20    10    11    1
    21    15    17    1
    22    17    18   ar
    23    18    19   ar
    24    19    20   ar
    25    20    23    1
    26    23    24    1
    27    24    25    1
    28    25    26    1
    29    26    27    1
    30    27    28    1
    31    20    21   ar
    32    21    22   ar
    33     6     1   ar
    34    34    30   ar
    35    22    17   ar
    36    11     4    1
    37    28    23    1
    38    12    13    1
    39    34    35    1
@<TRIPOS>MOLECULE
*****
 35 39 0 0 0
SMALL
GASTEIGER

@<TRIPOS>ATOM
      1 C         139.9532  144.9749  157.4566 C.ar    1  UNL1        0.0644
      2 C         139.4913  145.7803  156.2784 C.ar    1  UNL1        0.0155
      3 C         138.4238  145.2407  155.3731 C.ar    1  UNL1       -0.0032
      4 C         137.8183  143.8957  155.6462 C.ar    1  UNL1       -0.0246
      5 C         138.2802  143.0905  156.8243 C.ar    1  UNL1       -0.0234
      6 C         139.3476  143.6300  157.7295 C.ar    1  UNL1        0.0113
      7 C         137.8130  141.7376  157.2735 C.3     1  UNL1        0.0434
      8 C         136.7685  140.8561  156.6554 C.3     1  UNL1        0.0771
      9 N         135.9333  141.1096  155.4356 N.3     1  UNL1       -0.2671
     10 C         135.9362  142.3073  154.5325 C.3     1  UNL1        0.0771
     11 C         136.7751  143.5472  154.6262 C.3     1  UNL1        0.0434
     12 N         141.0206  145.5145  158.3617 N.pl3   1  UNL1       -0.2150
     13 H         141.6480  146.1972  158.0306 H       1  UNL1        0.1737
     14 O         142.3912  144.2820  159.4117 O.2     1  UNL1       -0.1499
     15 S         141.1322  145.0140  159.7713 S.O2    1  UNL1        0.0751
     16 O         139.8732  145.7459  160.1309 O.2     1  UNL1       -0.1499
     17 C         141.2438  144.5134  161.1809 C.ar    1  UNL1        0.1443
     18 C         141.0075  145.4485  162.3298 C.ar    1  UNL1        0.0246
     19 C         141.1191  144.9478  163.7394 C.ar    1  UNL1        0.0357
     20 C         141.4669  143.5123  164.0002 C.ar    1  UNL1        0.1319
     21 N         141.7032  142.5772  162.8513 N.ar    1  UNL1       -0.2278
     22 C         141.5916  143.0777  161.4417 C.ar    1  UNL1        0.1204
     23 N         141.5785  143.0116  165.4097 N.pl3   1  UNL1       -0.2881
     24 C         142.9094  142.5765  165.9478 C.3     1  UNL1        0.1242
     25 C         143.0211  142.0758  167.3574 C.3     1  UNL1        0.1636
     26 O         141.8019  142.0103  168.2289 O.3     1  UNL1       -0.3501
     27 C         140.4710  142.4454  167.6907 C.3     1  UNL1        0.1636
     28 C         140.3594  142.9460  166.2812 C.3     1  UNL1        0.1242
     29 C         134.9674  140.0216  155.0706 C.3     1  UNL1        0.1180
     30 C         133.8099  139.7122  155.9732 C.ar    1  UNL1        0.0693
     31 C         132.6111  140.5847  156.2003 C.ar    1  UNL1        0.0379
     32 C         131.7085  139.8877  157.1746 C.ar    1  UNL1        0.1211
     33 N         132.3493  138.5844  157.5498 N.ar    1  UNL1       -0.1713
     34 N         133.6482  138.4759  156.8072 N.ar    1  UNL1       -0.2784
     35 H         134.2830  137.7252  156.8583 H       1  UNL1        0.1886
@<TRIPOS>BOND
     1    14    15    2
     2    15    16    2
     3    15    12    1
     4    12     1    1
     5     1     2   ar
     6     2     3   ar
     7     3     4   ar
     8     4     5   ar
     9     5     6   ar
    10     5     7    1
    11     7     8    1
    12     8     9    1
    13     9    29    1
    14    29    30    1
    15    30    31   ar
    16    31    32   ar
    17    32    33   ar
    18    33    34   ar
    19     9    10    1
    20    10    11    1
    21    15    17    1
    22    17    18   ar
    23    18    19   ar
    24    19    20   ar
    25    20    23    1
    26    23    24    1
    27    24    25    1
    28    25    26    1
    29    26    27    1
    30    27    28    1
    31    20    21   ar
    32    21    22   ar
    33     6     1   ar
    34    34    30   ar
    35    22    17   ar
    36    11     4    1
    37    28    23    1
    38    12    13    1
    39    34    35    1
@<TRIPOS>MOLECULE
*****
 35 39 0 0 0
SMALL
GASTEIGER

@<TRIPOS>ATOM
      1 C         144.4445  142.1149  160.4262 C.ar    1  UNL1        0.0644
      2 C         144.7548  142.6292  159.0517 C.ar    1  UNL1        0.0155
      3 C         144.5063  141.7627  157.8528 C.ar    1  UNL1       -0.0032
      4 C         143.9475  140.3817  158.0284 C.ar    1  UNL1       -0.0246
      5 C         143.6372  139.8675  159.4028 C.ar    1  UNL1       -0.0234
      6 C         143.8856  140.7339  160.6017 C.ar    1  UNL1        0.0113
      7 C         143.0792  138.5322  159.7979 C.3     1  UNL1        0.0434
      8 C         142.6939  137.3816  158.9159 C.3     1  UNL1        0.0771
      9 N         142.7713  137.2821  157.4214 N.3     1  UNL1       -0.2671
     10 C         143.2531  138.3085  156.4393 C.3     1  UNL1        0.0771
     11 C         143.7766  139.6880  156.7095 C.3     1  UNL1        0.0434
     12 N         144.6930  142.9814  161.6250 N.pl3   1  UNL1       -0.2150
     13 H         145.3681  143.6969  161.5839 H       1  UNL1        0.1737
     14 O         142.7157  143.4113  162.2620 O.2     1  UNL1       -0.1499
     15 S         143.9129  142.7580  162.8866 S.O2    1  UNL1        0.0751
     16 O         145.1100  142.1047  163.5111 O.2     1  UNL1       -0.1499
     17 C         143.1327  142.5345  164.1481 C.ar    1  UNL1        0.1443
     18 C         143.8101  142.6586  165.4807 C.ar    1  UNL1        0.0246
     19 C         143.0299  142.4351  166.7422 C.ar    1  UNL1        0.0357
     20 C         141.5725  142.0876  166.6712 C.ar    1  UNL1        0.1319
     21 N         140.8951  141.9636  165.3386 N.ar    1  UNL1       -0.2278
     22 C         141.6752  142.1870  164.0771 C.ar    1  UNL1        0.1204
     23 N         140.7923  141.8641  167.9327 N.pl3   1  UNL1       -0.2881
     24 C         140.0410  140.5813  168.1325 C.3     1  UNL1        0.1242
     25 C         139.2608  140.3577  169.3940 C.3     1  UNL1        0.1636
     26 O         139.2319  141.4170  170.4556 O.3     1  UNL1       -0.3501
     27 C         139.9832  142.6999  170.2558 C.3     1  UNL1        0.1636
     28 C         140.7633  142.9233  168.9944 C.3     1  UNL1        0.1242
     29 C         142.3051  135.9845  156.8305 C.3     1  UNL1        0.1180
     30 C         143.1611  134.7580  156.9447 C.ar    1  UNL1        0.0693
     31 C         143.6738  133.9312  155.8030 C.ar    1  UNL1        0.0379
     32 C         144.4842  132.8052  156.3734 C.ar    1  UNL1        0.1211
     33 N         144.4723  132.9359  157.8676 N.ar    1  UNL1       -0.1713
     34 N         143.6545  134.1429  158.2208 N.ar    1  UNL1       -0.2784
     35 H         143.4735  134.4733  159.1303 H       1  UNL1        0.1886
@<TRIPOS>BOND
     1    14    15    2
     2    15    16    2
     3    15    12    1
     4    12     1    1
     5     1     2   ar
     6     2     3   ar
     7     3     4   ar
     8     4     5   ar
     9     5     6   ar
    10     5     7    1
    11     7     8    1
    12     8     9    1
    13     9    29    1
    14    29    30    1
    15    30    31   ar
    16    31    32   ar
    17    32    33   ar
    18    33    34   ar
    19     9    10    1
    20    10    11    1
    21    15    17    1
    22    17    18   ar
    23    18    19   ar
    24    19    20   ar
    25    20    23    1
    26    23    24    1
    27    24    25    1
    28    25    26    1
    29    26    27    1
    30    27    28    1
    31    20    21   ar
    32    21    22   ar
    33     6     1   ar
    34    34    30   ar
    35    22    17   ar
    36    11     4    1
    37    28    23    1
    38    12    13    1
    39    34    35    1
@<TRIPOS>MOLECULE
*****
 35 39 0 0 0
SMALL
GASTEIGER

@<TRIPOS>ATOM
      1 C         144.7222  142.0655  160.9027 C.ar    1  UNL1        0.0644
      2 C         144.9557  142.7838  159.6068 C.ar    1  UNL1        0.0155
      3 C         144.5618  142.1397  158.3106 C.ar    1  UNL1       -0.0032
      4 C         143.9344  140.7771  158.3105 C.ar    1  UNL1       -0.0246
      5 C         143.7010  140.0589  159.6064 C.ar    1  UNL1       -0.0234
      6 C         144.0948  140.7029  160.9025 C.ar    1  UNL1        0.0113
      7 C         143.0944  138.7051  159.8293 C.3     1  UNL1        0.0434
      8 C         142.5715  137.7354  158.8112 C.3     1  UNL1        0.0771
      9 N         142.5261  137.8800  157.3190 N.3     1  UNL1       -0.2671
     10 C         142.9922  139.0299  156.4760 C.3     1  UNL1        0.0771
     11 C         143.6190  140.3193  156.9173 C.3     1  UNL1        0.0434
     12 N         145.1161  142.7097  162.1988 N.pl3   1  UNL1       -0.2150
     13 H         145.9432  143.2408  162.2531 H       1  UNL1        0.1737
     14 O         145.2780  141.6394  164.0232 O.2     1  UNL1       -0.1499
     15 S         144.2497  142.5445  163.4121 S.O2    1  UNL1        0.0751
     16 O         143.2214  143.4496  162.8010 O.2     1  UNL1       -0.1499
     17 C         143.3833  142.3793  164.6254 C.ar    1  UNL1        0.1443
     18 C         143.9249  142.7108  165.9844 C.ar    1  UNL1        0.0246
     19 C         143.0584  142.5457  167.1977 C.ar    1  UNL1        0.0357
     20 C         141.6506  142.0490  167.0521 C.ar    1  UNL1        0.1319
     21 N         141.1090  141.7175  165.6931 N.ar    1  UNL1       -0.2278
     22 C         141.9754  141.8827  164.4797 C.ar    1  UNL1        0.1204
     23 N         140.7842  141.8838  168.2653 N.pl3   1  UNL1       -0.2881
     24 C         140.6876  142.9898  169.2741 C.3     1  UNL1        0.1242
     25 C         139.8211  142.8247  170.4874 C.3     1  UNL1        0.1636
     26 O         139.0513  141.5536  170.6919 O.3     1  UNL1       -0.3501
     27 C         139.1480  140.4477  169.6831 C.3     1  UNL1        0.1636
     28 C         140.0143  140.6128  168.4699 C.3     1  UNL1        0.1242
     29 C         141.9365  136.7215  156.5705 C.3     1  UNL1        0.1180
     30 C         140.6185  136.8733  155.8704 C.ar    1  UNL1        0.0693
     31 C         140.4130  136.9612  154.3872 C.ar    1  UNL1        0.0379
     32 C         138.9422  137.1061  154.1308 C.ar    1  UNL1        0.1211
     33 N         138.2387  137.1078  155.4556 N.ar    1  UNL1       -0.1713
     34 N         139.2747  136.9640  156.5308 N.ar    1  UNL1       -0.2784
     35 H         139.1029  136.9342  157.4997 H       1  UNL1        0.1886
@<TRIPOS>BOND
     1    14    15    2
     2    15    16    2
     3    15    12    1
     4    12     1    1
     5     1     2   ar
     6     2     3   ar
     7     3     4   ar
     8     4     5   ar
     9     5     6   ar
    10     5     7    1
    11     7     8    1
    12     8     9    1
    13     9    29    1
    14    29    30    1
    15    30    31   ar
    16    31    32   ar
    17    32    33   ar
    18    33    34   ar
    19     9    10    1
    20    10    11    1
    21    15    17    1
    22    17    18   ar
    23    18    19   ar
    24    19    20   ar
    25    20    23    1
    26    23    24    1
    27    24    25    1
    28    25    26    1
    29    26    27    1
    30    27    28    1
    31    20    21   ar
    32    21    22   ar
    33     6     1   ar
    34    34    30   ar
    35    22    17   ar
    36    11     4    1
    37    28    23    1
    38    12    13    1
    39    34    35    1
@<TRIPOS>MOLECULE
*****
 35 39 0 0 0
SMALL
GASTEIGER

@<TRIPOS>ATOM
      1 C         140.5943  139.6743  165.4507 C.ar    1  UNL1        0.0644
      2 C         139.6381  138.6878  164.8487 C.ar    1  UNL1        0.0155
      3 C         138.4761  138.1835  165.6521 C.ar    1  UNL1       -0.0032
      4 C         138.2704  138.6657  167.0576 C.ar    1  UNL1       -0.0246
      5 C         139.2266  139.6522  167.6595 C.ar    1  UNL1       -0.0234
      6 C         140.3886  140.1565  166.8561 C.ar    1  UNL1        0.0113
      7 C         139.2055  140.2573  169.0319 C.3     1  UNL1        0.0434
      8 C         138.2228  140.0253  170.1413 C.3     1  UNL1        0.0771
      9 N         137.0187  139.1310  170.1522 N.3     1  UNL1       -0.2671
     10 C         136.4997  138.2477  169.0565 C.3     1  UNL1        0.0771
     11 C         137.0568  138.0406  167.6793 C.3     1  UNL1        0.0434
     12 N         141.7563  140.1786  164.6472 N.pl3   1  UNL1       -0.2150
     13 H         142.3746  140.8385  165.0366 H       1  UNL1        0.1737
     14 O         142.7402  138.5055  163.7914 O.2     1  UNL1       -0.1499
     15 S         141.9761  139.6775  163.2506 S.O2    1  UNL1        0.0751
     16 O         141.2120  140.8496  162.7098 O.2     1  UNL1       -0.1499
     17 C         142.1960  139.1765  161.8540 C.ar    1  UNL1        0.1443
     18 C         143.0695  137.9807  161.6150 C.ar    1  UNL1        0.0246
     19 C         143.2893  137.4797  160.2183 C.ar    1  UNL1        0.0357
     20 C         142.6356  138.1743  159.0607 C.ar    1  UNL1        0.1319
     21 N         141.7620  139.3701  159.2996 N.ar    1  UNL1       -0.2278
     22 C         141.5422  139.8711  160.6963 C.ar    1  UNL1        0.1204
     23 N         142.8554  137.6733  157.6640 N.pl3   1  UNL1       -0.2881
     24 C         142.9565  138.6452  156.5259 C.3     1  UNL1        0.1242
     25 C         143.1762  138.1443  155.1292 C.3     1  UNL1        0.1636
     26 O         143.2950  136.6715  154.8706 O.3     1  UNL1       -0.3501
     27 C         143.1939  135.6996  156.0088 C.3     1  UNL1        0.1636
     28 C         142.9741  136.2006  157.4053 C.3     1  UNL1        0.1242
     29 C         136.2290  139.1182  171.4274 C.3     1  UNL1        0.1180
     30 C         136.1082  137.8517  172.2222 C.ar    1  UNL1        0.0693
     31 C         135.0975  137.5778  173.2962 C.ar    1  UNL1        0.0379
     32 C         135.3415  136.1937  173.8201 C.ar    1  UNL1        0.1211
     33 N         136.5030  135.6121  173.0700 N.ar    1  UNL1       -0.1713
     34 N         136.9768  136.6368  172.0823 N.ar    1  UNL1       -0.2784
     35 H         137.7263  136.5307  171.4528 H       1  UNL1        0.1886
@<TRIPOS>BOND
     1    14    15    2
     2    15    16    2
     3    15    12    1
     4    12     1    1
     5     1     2   ar
     6     2     3   ar
     7     3     4   ar
     8     4     5   ar
     9     5     6   ar
    10     5     7    1
    11     7     8    1
    12     8     9    1
    13     9    29    1
    14    29    30    1
    15    30    31   ar
    16    31    32   ar
    17    32    33   ar
    18    33    34   ar
    19     9    10    1
    20    10    11    1
    21    15    17    1
    22    17    18   ar
    23    18    19   ar
    24    19    20   ar
    25    20    23    1
    26    23    24    1
    27    24    25    1
    28    25    26    1
    29    26    27    1
    30    27    28    1
    31    20    21   ar
    32    21    22   ar
    33     6     1   ar
    34    34    30   ar
    35    22    17   ar
    36    11     4    1
    37    28    23    1
    38    12    13    1
    39    34    35    1
@<TRIPOS>MOLECULE
*****
 35 39 0 0 0
SMALL
GASTEIGER

@<TRIPOS>ATOM
      1 C         141.2068  144.9098  162.2760 C.ar    1  UNL1        0.0644
      2 C         139.8154  144.9472  162.8354 C.ar    1  UNL1        0.0155
      3 C         139.5316  144.3477  164.1808 C.ar    1  UNL1       -0.0032
      4 C         140.6392  143.7107  164.9668 C.ar    1  UNL1       -0.0246
      5 C         142.0304  143.6734  164.4074 C.ar    1  UNL1       -0.0234
      6 C         142.3142  144.2728  163.0620 C.ar    1  UNL1        0.0113
      7 C         143.2697  143.0919  165.0207 C.3     1  UNL1        0.0434
      8 C         143.4237  142.4042  166.3450 C.3     1  UNL1        0.0771
      9 N         142.3766  142.1283  167.3827 N.3     1  UNL1       -0.2671
     10 C         140.9167  142.4717  167.3529 C.3     1  UNL1        0.0771
     11 C         140.1435  143.1760  166.2776 C.3     1  UNL1        0.0434
     12 N         141.4905  145.5093  160.9306 N.pl3   1  UNL1       -0.2150
     13 H         142.1618  146.2240  160.8418 H       1  UNL1        0.1737
     14 O         141.7098  143.8723  159.5994 O.2     1  UNL1       -0.1499
     15 S         140.7515  145.0199  159.7205 S.O2    1  UNL1        0.0751
     16 O         139.7931  146.1674  159.8417 O.2     1  UNL1       -0.1499
     17 C         140.0124  144.5304  158.5105 C.ar    1  UNL1        0.1443
     18 C         139.2670  143.2297  158.5621 C.ar    1  UNL1        0.0246
     19 C         138.5280  142.7404  157.3520 C.ar    1  UNL1        0.0357
     20 C         138.5343  143.5516  156.0903 C.ar    1  UNL1        0.1319
     21 N         139.2798  144.8522  156.0386 N.ar    1  UNL1       -0.2278
     22 C         140.0188  145.3417  157.2487 C.ar    1  UNL1        0.1204
     23 N         137.7953  143.0622  154.8802 N.pl3   1  UNL1       -0.2881
     24 C         137.8280  141.6066  154.5193 C.3     1  UNL1        0.1242
     25 C         137.0890  141.1172  153.3092 C.3     1  UNL1        0.1636
     26 O         136.3174  142.0834  152.4599 O.3     1  UNL1       -0.3501
     27 C         136.2848  143.5390  152.8209 C.3     1  UNL1        0.1636
     28 C         137.0237  144.0283  154.0309 C.3     1  UNL1        0.1242
     29 C         142.8521  141.4144  168.6133 C.3     1  UNL1        0.1180
     30 C         141.8811  141.0717  169.7041 C.ar    1  UNL1        0.0693
     31 C         141.0169  139.8470  169.7626 C.ar    1  UNL1        0.0379
     32 C         140.2056  139.9121  171.0225 C.ar    1  UNL1        0.1211
     33 N         140.5682  141.1769  171.7427 N.ar    1  UNL1       -0.1713
     34 N         141.6037  141.8937  170.9279 N.ar    1  UNL1       -0.2784
     35 H         142.0270  142.7527  171.1562 H       1  UNL1        0.1886
@<TRIPOS>BOND
     1    14    15    2
     2    15    16    2
     3    15    12    1
     4    12     1    1
     5     1     2   ar
     6     2     3   ar
     7     3     4   ar
     8     4     5   ar
     9     5     6   ar
    10     5     7    1
    11     7     8    1
    12     8     9    1
    13     9    29    1
    14    29    30    1
    15    30    31   ar
    16    31    32   ar
    17    32    33   ar
    18    33    34   ar
    19     9    10    1
    20    10    11    1
    21    15    17    1
    22    17    18   ar
    23    18    19   ar
    24    19    20   ar
    25    20    23    1
    26    23    24    1
    27    24    25    1
    28    25    26    1
    29    26    27    1
    30    27    28    1
    31    20    21   ar
    32    21    22   ar
    33     6     1   ar
    34    34    30   ar
    35    22    17   ar
    36    11     4    1
    37    28    23    1
    38    12    13    1
    39    34    35    1
