@<TRIPOS>MOLECULE
*****
 43 48 0 0 0
SMALL
GASTEIGER

@<TRIPOS>ATOM
      1 C         142.3036  143.1057  159.6505 C.3     1  UNL1        0.0765
      2 C         143.6560  142.6882  159.1540 C.3     1  UNL1        0.0246
      3 C         144.7119  142.2563  160.1278 C.3     1  UNL1        0.0277
      4 C         144.4155  142.2420  161.5981 C.ar    1  UNL1       -0.0258
      5 C         145.4716  141.8101  162.5720 C.ar    1  UNL1       -0.0014
      6 C         145.1752  141.7958  164.0423 C.ar    1  UNL1        0.0371
      7 C         143.8227  142.2134  164.5388 C.ar    1  UNL1        0.1450
      8 C         142.7667  142.6453  163.5650 C.ar    1  UNL1        0.0330
      9 C         143.0631  142.6596  162.0947 C.ar    1  UNL1       -0.0215
     10 C         142.0072  143.0914  161.1209 C.3     1  UNL1        0.0457
     11 C         141.3465  144.8765  158.0078 C.2     1  UNL1        0.2458
     12 O         142.5017  145.7836  158.3127 O.2     1  UNL1       -0.2701
     13 N         141.2475  143.5376  158.6767 N.am    1  UNL1       -0.3021
     14 H         140.4893  142.9423  158.4766 H       1  UNL1        0.1497
     15 C         139.2448  147.1370  155.5132 C.ar    1  UNL1        0.0174
     16 C         140.3008  146.7051  156.4870 C.ar    1  UNL1        0.0060
     17 C         140.2905  145.3084  157.0340 C.ar    1  UNL1        0.0534
     18 C         139.2242  144.3437  156.6072 C.ar    1  UNL1        0.0084
     19 C         138.1682  144.7756  155.6335 C.ar    1  UNL1        0.0716
     20 C         138.1785  146.1722  155.0865 C.ar    1  UNL1        0.0053
     21 C         138.1003  149.7957  157.0202 C.3     1  UNL1        0.1537
     22 N         138.7290  149.7558  155.6589 N.ar    1  UNL1       -0.2488
     23 N         138.9421  150.9309  154.7513 N.ar    1  UNL1       -0.1676
     24 C         139.5998  150.4351  153.4977 C.ar    1  UNL1        0.1217
     25 C         139.7932  148.9535  153.6306 C.ar    1  UNL1        0.0412
     26 C         139.2551  148.5337  154.9663 C.ar    1  UNL1        0.0795
     27 C         137.1018  143.8108  155.2066 C.3     1  UNL1        0.4186
     28 F         136.0355  142.8460  154.7798 F       1  UNL1       -0.1659
     29 F         137.4853  142.8910  156.3277 F       1  UNL1       -0.1659
     30 F         136.7182  144.7306  154.0856 F       1  UNL1       -0.1659
     31 O         143.5263  142.1991  166.0092 O.3     1  UNL1       -0.4537
     32 C         142.3525  141.4239  166.5302 C.ar    1  UNL1        0.1455
     33 C         141.6233  140.4715  165.6295 C.ar    1  UNL1        0.0579
     34 C         140.4495  139.6963  166.1505 C.ar    1  UNL1        0.1034
     35 N         140.0051  139.8734  167.5721 N.ar    1  UNL1       -0.2291
     36 C         140.7344  140.8258  168.4728 C.ar    1  UNL1        0.1330
     37 C         141.9081  141.6010  167.9518 C.ar    1  UNL1        0.0445
     38 C         142.6374  142.5534  168.8525 C.3     1  UNL1        0.0419
     39 C         142.1929  142.7305  170.2741 C.3     1  UNL1        0.0903
     40 C         141.0191  141.9553  170.7951 C.2     1  UNL1        0.2275
     41 O         140.5747  142.1324  172.2167 O.2     1  UNL1       -0.2747
     42 N         140.2899  141.0029  169.8944 N.am    1  UNL1       -0.2695
     43 H         139.5196  140.4941  170.2364 H       1  UNL1        0.1562
@<TRIPOS>BOND
     1    21    22    1
     2    22    23   ar
     3    23    24   ar
     4    24    25   ar
     5    25    26   ar
     6    26    15    1
     7    15    16   ar
     8    16    17   ar
     9    17    11    1
    10    11    12    2
    11    11    13   am
    12     1    13    1
    13     1     2    1
    14     2     3    1
    15     3     4    1
    16     4     5   ar
    17     5     6   ar
    18     6     7   ar
    19     7    31    1
    20    31    32    1
    21    32    33   ar
    22    33    34   ar
    23    34    35   ar
    24    35    36   ar
    25    36    37   ar
    26    37    38    1
    27    38    39    1
    28    39    40    1
    29    40    41    2
    30    40    42   am
    31     7     8   ar
    32     8     9   ar
    33     9    10    1
    34    17    18   ar
    35    18    19   ar
    36    19    27    1
    37    27    28    1
    38    27    29    1
    39    27    30    1
    40    19    20   ar
    41    26    22   ar
    42    20    15   ar
    43    10     1    1
    44     9     4   ar
    45    37    32   ar
    46    42    36    1
    47    13    14    1
    48    42    43    1
@<TRIPOS>MOLECULE
*****
 43 48 0 0 0
SMALL
GASTEIGER

@<TRIPOS>ATOM
      1 C         143.0241  141.0621  161.8179 C.3     1  UNL1        0.0765
      2 C         143.6904  142.3873  161.5945 C.3     1  UNL1        0.0246
      3 C         144.2292  142.7367  160.2390 C.3     1  UNL1        0.0277
      4 C         144.1018  141.7610  159.1069 C.ar    1  UNL1       -0.0258
      5 C         144.6407  142.1105  157.7513 C.ar    1  UNL1       -0.0014
      6 C         144.5133  141.1348  156.6191 C.ar    1  UNL1        0.0371
      7 C         143.8470  139.8096  156.8426 C.ar    1  UNL1        0.1450
      8 C         143.3081  139.4601  158.1981 C.ar    1  UNL1        0.0330
      9 C         143.4355  140.4358  159.3302 C.ar    1  UNL1       -0.0215
     10 C         142.8967  140.0864  160.6858 C.3     1  UNL1        0.0457
     11 C         141.0722  141.0650  163.5326 C.2     1  UNL1        0.2458
     12 O         140.1980  141.7670  162.5362 O.2     1  UNL1       -0.2701
     13 N         142.4853  140.7125  163.1735 N.am    1  UNL1       -0.3021
     14 H         143.0590  140.2518  163.8275 H       1  UNL1        0.1497
     15 C         140.3816  141.1857  167.4388 C.ar    1  UNL1        0.0174
     16 C         140.9204  141.5352  166.0833 C.ar    1  UNL1        0.0060
     17 C         140.5333  140.7155  164.8882 C.ar    1  UNL1        0.0534
     18 C         139.6075  139.5463  165.0486 C.ar    1  UNL1        0.0084
     19 C         139.0686  139.1968  166.4041 C.ar    1  UNL1        0.0716
     20 C         139.4557  140.0165  167.5992 C.ar    1  UNL1        0.0053
     21 C         142.3913  140.2534  169.8349 C.3     1  UNL1        0.1537
     22 N         141.6924  141.5769  169.7353 N.ar    1  UNL1       -0.2488
     23 N         141.7946  142.7041  170.7196 N.ar    1  UNL1       -0.1676
     24 C         140.9339  143.8294  170.2265 C.ar    1  UNL1        0.1217
     25 C         140.2998  143.3975  168.9375 C.ar    1  UNL1        0.0412
     26 C         140.7686  142.0054  168.6339 C.ar    1  UNL1        0.0795
     27 C         138.1427  138.0276  166.5645 C.3     1  UNL1        0.4186
     28 F         137.2168  136.8585  166.7250 F       1  UNL1       -0.1659
     29 F         137.4341  138.7415  167.6773 F       1  UNL1       -0.1659
     30 F         138.8513  137.3137  165.4518 F       1  UNL1       -0.1659
     31 O         143.7195  138.8339  155.7104 O.3     1  UNL1       -0.4537
     32 C         142.4441  138.0674  155.5209 C.ar    1  UNL1        0.1455
     33 C         141.1756  138.7936  155.1842 C.ar    1  UNL1        0.0579
     34 C         139.9002  138.0272  154.9946 C.ar    1  UNL1        0.1034
     35 N         139.8933  136.5344  155.1418 N.ar    1  UNL1       -0.2291
     36 C         141.1619  135.8081  155.4785 C.ar    1  UNL1        0.1330
     37 C         142.4373  136.5746  155.6680 C.ar    1  UNL1        0.0445
     38 C         143.7059  135.8484  156.0048 C.3     1  UNL1        0.0419
     39 C         143.6990  134.3556  156.1519 C.3     1  UNL1        0.0903
     40 C         142.4236  133.5891  155.9623 C.2     1  UNL1        0.2275
     41 O         142.4167  132.0964  156.1095 O.2     1  UNL1       -0.2747
     42 N         141.1551  134.3154  155.6256 N.am    1  UNL1       -0.2695
     43 H         140.3180  133.8123  155.5012 H       1  UNL1        0.1562
@<TRIPOS>BOND
     1    21    22    1
     2    22    23   ar
     3    23    24   ar
     4    24    25   ar
     5    25    26   ar
     6    26    15    1
     7    15    16   ar
     8    16    17   ar
     9    17    11    1
    10    11    12    2
    11    11    13   am
    12     1    13    1
    13     1     2    1
    14     2     3    1
    15     3     4    1
    16     4     5   ar
    17     5     6   ar
    18     6     7   ar
    19     7    31    1
    20    31    32    1
    21    32    33   ar
    22    33    34   ar
    23    34    35   ar
    24    35    36   ar
    25    36    37   ar
    26    37    38    1
    27    38    39    1
    28    39    40    1
    29    40    41    2
    30    40    42   am
    31     7     8   ar
    32     8     9   ar
    33     9    10    1
    34    17    18   ar
    35    18    19   ar
    36    19    27    1
    37    27    28    1
    38    27    29    1
    39    27    30    1
    40    19    20   ar
    41    26    22   ar
    42    20    15   ar
    43    10     1    1
    44     9     4   ar
    45    37    32   ar
    46    42    36    1
    47    13    14    1
    48    42    43    1
@<TRIPOS>MOLECULE
*****
 43 48 0 0 0
SMALL
GASTEIGER

@<TRIPOS>ATOM
      1 C         140.4805  143.3458  161.4971 C.3     1  UNL1        0.0765
      2 C         140.9658  144.7651  161.4908 C.3     1  UNL1        0.0246
      3 C         140.8868  145.5791  160.2334 C.3     1  UNL1        0.0277
      4 C         140.3225  144.9739  158.9823 C.ar    1  UNL1       -0.0258
      5 C         140.2435  145.7881  157.7249 C.ar    1  UNL1       -0.0014
      6 C         139.6791  145.1829  156.4738 C.ar    1  UNL1        0.0371
      7 C         139.1937  143.7635  156.4802 C.ar    1  UNL1        0.1450
      8 C         139.2727  142.9495  157.7375 C.ar    1  UNL1        0.0330
      9 C         139.8371  143.5547  158.9886 C.ar    1  UNL1       -0.0215
     10 C         139.9161  142.7406  160.2460 C.3     1  UNL1        0.0457
     11 C         139.6117  142.8036  163.8848 C.2     1  UNL1        0.2458
     12 O         138.5849  143.8897  163.7579 O.2     1  UNL1       -0.2701
     13 N         140.5595  142.5317  162.7545 N.am    1  UNL1       -0.3021
     14 H         141.2334  141.8188  162.8378 H       1  UNL1        0.1497
     15 C         140.6801  141.6016  167.5130 C.ar    1  UNL1        0.0174
     16 C         140.6011  142.4156  166.2557 C.ar    1  UNL1        0.0060
     17 C         139.6907  141.9895  165.1423 C.ar    1  UNL1        0.0534
     18 C         138.8594  140.7493  165.2862 C.ar    1  UNL1        0.0084
     19 C         138.9384  139.9352  166.5436 C.ar    1  UNL1        0.0716
     20 C         139.8488  140.3614  167.6570 C.ar    1  UNL1        0.0053
     21 C         139.7459  142.7258  170.4308 C.3     1  UNL1        0.1537
     22 N         141.1610  142.5444  169.9676 N.ar    1  UNL1       -0.2488
     23 N         142.3952  142.8480  170.7642 N.ar    1  UNL1       -0.1676
     24 C         143.5874  142.5189  169.9155 C.ar    1  UNL1        0.1217
     25 C         143.0900  142.0119  168.5943 C.ar    1  UNL1        0.0412
     26 C         141.5904  142.0277  168.6265 C.ar    1  UNL1        0.0795
     27 C         138.1071  138.6949  166.6876 C.3     1  UNL1        0.4186
     28 F         137.2758  137.4547  166.8315 F       1  UNL1       -0.1659
     29 F         138.4586  138.2965  165.2849 F       1  UNL1       -0.1659
     30 F         137.7556  139.0933  168.0903 F       1  UNL1       -0.1659
     31 O         138.6294  143.1583  155.2291 O.3     1  UNL1       -0.4537
     32 C         137.7111  141.9754  155.3163 C.ar    1  UNL1        0.1455
     33 C         136.2554  142.1765  155.6170 C.ar    1  UNL1        0.0579
     34 C         135.3371  140.9936  155.7042 C.ar    1  UNL1        0.1034
     35 N         135.8746  139.6096  155.4908 N.ar    1  UNL1       -0.2291
     36 C         137.3304  139.4085  155.1902 C.ar    1  UNL1        0.1330
     37 C         138.2486  140.5914  155.1029 C.ar    1  UNL1        0.0445
     38 C         139.7044  140.3903  154.8023 C.3     1  UNL1        0.0419
     39 C         140.2419  139.0062  154.5889 C.3     1  UNL1        0.0903
     40 C         139.3236  137.8233  154.6761 C.2     1  UNL1        0.2275
     41 O         139.8611  136.4393  154.4627 O.2     1  UNL1       -0.2747
     42 N         137.8679  138.0244  154.9768 N.am    1  UNL1       -0.2695
     43 H         137.2653  137.2481  155.0340 H       1  UNL1        0.1562
@<TRIPOS>BOND
     1    21    22    1
     2    22    23   ar
     3    23    24   ar
     4    24    25   ar
     5    25    26   ar
     6    26    15    1
     7    15    16   ar
     8    16    17   ar
     9    17    11    1
    10    11    12    2
    11    11    13   am
    12     1    13    1
    13     1     2    1
    14     2     3    1
    15     3     4    1
    16     4     5   ar
    17     5     6   ar
    18     6     7   ar
    19     7    31    1
    20    31    32    1
    21    32    33   ar
    22    33    34   ar
    23    34    35   ar
    24    35    36   ar
    25    36    37   ar
    26    37    38    1
    27    38    39    1
    28    39    40    1
    29    40    41    2
    30    40    42   am
    31     7     8   ar
    32     8     9   ar
    33     9    10    1
    34    17    18   ar
    35    18    19   ar
    36    19    27    1
    37    27    28    1
    38    27    29    1
    39    27    30    1
    40    19    20   ar
    41    26    22   ar
    42    20    15   ar
    43    10     1    1
    44     9     4   ar
    45    37    32   ar
    46    42    36    1
    47    13    14    1
    48    42    43    1
@<TRIPOS>MOLECULE
*****
 43 48 0 0 0
SMALL
GASTEIGER

@<TRIPOS>ATOM
      1 C         140.8245  143.6231  161.8879 C.3     1  UNL1        0.0765
      2 C         140.3075  145.0296  161.8210 C.3     1  UNL1        0.0246
      3 C         140.2551  145.7476  160.5051 C.3     1  UNL1        0.0277
      4 C         140.7196  145.0591  159.2560 C.ar    1  UNL1       -0.0258
      5 C         140.6672  145.7771  157.9400 C.ar    1  UNL1       -0.0014
      6 C         141.1318  145.0886  156.6910 C.ar    1  UNL1        0.0371
      7 C         141.6487  143.6820  156.7579 C.ar    1  UNL1        0.1450
      8 C         141.7012  142.9641  158.0738 C.ar    1  UNL1        0.0330
      9 C         141.2366  143.6526  159.3229 C.ar    1  UNL1       -0.0215
     10 C         141.2890  142.9346  160.6388 C.3     1  UNL1        0.0457
     11 C         139.6072  142.4572  163.8650 C.2     1  UNL1        0.2458
     12 O         138.2850  142.7274  163.2102 O.2     1  UNL1       -0.2701
     13 N         140.8769  142.9051  163.2039 N.am    1  UNL1       -0.3021
     14 H         141.7447  142.7277  163.6336 H       1  UNL1        0.1497
     15 C         140.6442  141.4942  167.5727 C.ar    1  UNL1        0.0174
     16 C         140.5917  142.2122  166.2568 C.ar    1  UNL1        0.0060
     17 C         139.6596  141.7392  165.1810 C.ar    1  UNL1        0.0534
     18 C         138.7800  140.5481  165.4211 C.ar    1  UNL1        0.0084
     19 C         138.8325  139.8302  166.7370 C.ar    1  UNL1        0.0716
     20 C         139.7646  140.3032  167.8128 C.ar    1  UNL1        0.0053
     21 C         139.7677  142.7804  170.4411 C.3     1  UNL1        0.1537
     22 N         141.1734  142.5585  169.9670 N.ar    1  UNL1       -0.2488
     23 N         142.4230  142.8888  170.7282 N.ar    1  UNL1       -0.1676
     24 C         143.5982  142.5017  169.8802 C.ar    1  UNL1        0.1217
     25 C         143.0749  141.9322  168.5949 C.ar    1  UNL1        0.0412
     26 C         141.5763  141.9673  168.6486 C.ar    1  UNL1        0.0795
     27 C         137.9528  138.6391  166.9771 C.3     1  UNL1        0.4186
     28 F         137.0733  137.4480  167.2172 F       1  UNL1       -0.1659
     29 F         138.2155  138.1633  165.5790 F       1  UNL1       -0.1659
     30 F         137.6902  139.1148  168.3752 F       1  UNL1       -0.1659
     31 O         142.1133  142.9935  155.5088 O.3     1  UNL1       -0.4537
     32 C         143.2468  143.5691  154.7125 C.ar    1  UNL1        0.1455
     33 C         142.9722  144.5830  153.6418 C.ar    1  UNL1        0.0579
     34 C         144.1057  145.1586  152.8454 C.ar    1  UNL1        0.1034
     35 N         145.5137  144.7200  153.1198 N.ar    1  UNL1       -0.2291
     36 C         145.7882  143.7060  154.1906 C.ar    1  UNL1        0.1330
     37 C         144.6548  143.1306  154.9869 C.ar    1  UNL1        0.0445
     38 C         144.9293  142.1165  156.0577 C.3     1  UNL1        0.0419
     39 C         146.3372  141.6780  156.3321 C.3     1  UNL1        0.0903
     40 C         147.4707  142.2535  155.5357 C.2     1  UNL1        0.2275
     41 O         148.8787  141.8150  155.8102 O.2     1  UNL1       -0.2747
     42 N         147.1962  143.2675  154.4650 N.am    1  UNL1       -0.2695
     43 H         147.9401  143.6452  153.9424 H       1  UNL1        0.1562
@<TRIPOS>BOND
     1    21    22    1
     2    22    23   ar
     3    23    24   ar
     4    24    25   ar
     5    25    26   ar
     6    26    15    1
     7    15    16   ar
     8    16    17   ar
     9    17    11    1
    10    11    12    2
    11    11    13   am
    12     1    13    1
    13     1     2    1
    14     2     3    1
    15     3     4    1
    16     4     5   ar
    17     5     6   ar
    18     6     7   ar
    19     7    31    1
    20    31    32    1
    21    32    33   ar
    22    33    34   ar
    23    34    35   ar
    24    35    36   ar
    25    36    37   ar
    26    37    38    1
    27    38    39    1
    28    39    40    1
    29    40    41    2
    30    40    42   am
    31     7     8   ar
    32     8     9   ar
    33     9    10    1
    34    17    18   ar
    35    18    19   ar
    36    19    27    1
    37    27    28    1
    38    27    29    1
    39    27    30    1
    40    19    20   ar
    41    26    22   ar
    42    20    15   ar
    43    10     1    1
    44     9     4   ar
    45    37    32   ar
    46    42    36    1
    47    13    14    1
    48    42    43    1
@<TRIPOS>MOLECULE
*****
 43 48 0 0 0
SMALL
GASTEIGER

@<TRIPOS>ATOM
      1 C         140.5138  143.4803  161.9186 C.3     1  UNL1        0.0765
      2 C         140.5026  144.9802  161.9020 C.3     1  UNL1        0.0246
      3 C         140.4036  145.7150  160.5981 C.3     1  UNL1        0.0277
      4 C         140.3156  144.9500  159.3109 C.ar    1  UNL1       -0.0258
      5 C         140.2165  145.6849  158.0070 C.ar    1  UNL1       -0.0014
      6 C         140.1285  144.9199  156.7197 C.ar    1  UNL1        0.0371
      7 C         140.1396  143.4200  156.7364 C.ar    1  UNL1        0.1450
      8 C         140.2387  142.6852  158.0402 C.ar    1  UNL1        0.0330
      9 C         140.3267  143.4502  159.3275 C.ar    1  UNL1       -0.0215
     10 C         140.4258  142.7153  160.6314 C.3     1  UNL1        0.0457
     11 C         139.3663  142.3387  163.9509 C.2     1  UNL1        0.2458
     12 O         138.0205  142.6668  163.3753 O.2     1  UNL1       -0.2701
     13 N         140.6129  142.7454  163.2226 N.am    1  UNL1       -0.3021
     14 H         141.4961  142.5300  163.6003 H       1  UNL1        0.1497
     15 C         140.5087  141.3495  167.6205 C.ar    1  UNL1        0.0174
     16 C         140.4095  142.0843  166.3167 C.ar    1  UNL1        0.0060
     17 C         139.4654  141.6037  165.2548 C.ar    1  UNL1        0.0534
     18 C         138.6203  140.3883  165.4968 C.ar    1  UNL1        0.0084
     19 C         138.7194  139.6535  166.8006 C.ar    1  UNL1        0.0716
     20 C         139.6636  140.1340  167.8625 C.ar    1  UNL1        0.0053
     21 C         139.6647  142.6412  170.4961 C.3     1  UNL1        0.1537
     22 N         141.0649  142.4238  170.0041 N.ar    1  UNL1       -0.2488
     23 N         142.3231  142.7619  170.7476 N.ar    1  UNL1       -0.1676
     24 C         143.4886  142.3772  169.8854 C.ar    1  UNL1        0.1217
     25 C         142.9508  141.8012  168.6090 C.ar    1  UNL1        0.0412
     26 C         141.4529  141.8300  168.6824 C.ar    1  UNL1        0.0795
     27 C         137.8743  138.4380  167.0427 C.3     1  UNL1        0.4186
     28 F         137.0293  137.2226  167.2847 F       1  UNL1       -0.1659
     29 F         138.2744  137.8933  165.7036 F       1  UNL1       -0.1659
     30 F         137.4743  138.9827  168.3818 F       1  UNL1       -0.1659
     31 O         140.0517  142.6550  155.4491 O.3     1  UNL1       -0.4537
     32 C         139.4616  141.2760  155.4350 C.ar    1  UNL1        0.1455
     33 C         140.3571  140.0761  155.5249 C.ar    1  UNL1        0.0579
     34 C         139.7671  138.6970  155.5109 C.ar    1  UNL1        0.1034
     35 N         138.2814  138.5180  155.4068 N.ar    1  UNL1       -0.2291
     36 C         137.3859  139.7180  155.3169 C.ar    1  UNL1        0.1330
     37 C         137.9759  141.0969  155.3310 C.ar    1  UNL1        0.0445
     38 C         137.0804  142.2969  155.2411 C.3     1  UNL1        0.0419
     39 C         135.5947  142.1179  155.1370 C.3     1  UNL1        0.0903
     40 C         135.0047  140.7389  155.1230 C.2     1  UNL1        0.2275
     41 O         133.5190  140.5598  155.0189 O.2     1  UNL1       -0.2747
     42 N         135.9002  139.5389  155.2129 N.am    1  UNL1       -0.2695
     43 H         135.5129  138.6339  155.2037 H       1  UNL1        0.1562
@<TRIPOS>BOND
     1    21    22    1
     2    22    23   ar
     3    23    24   ar
     4    24    25   ar
     5    25    26   ar
     6    26    15    1
     7    15    16   ar
     8    16    17   ar
     9    17    11    1
    10    11    12    2
    11    11    13   am
    12     1    13    1
    13     1     2    1
    14     2     3    1
    15     3     4    1
    16     4     5   ar
    17     5     6   ar
    18     6     7   ar
    19     7    31    1
    20    31    32    1
    21    32    33   ar
    22    33    34   ar
    23    34    35   ar
    24    35    36   ar
    25    36    37   ar
    26    37    38    1
    27    38    39    1
    28    39    40    1
    29    40    41    2
    30    40    42   am
    31     7     8   ar
    32     8     9   ar
    33     9    10    1
    34    17    18   ar
    35    18    19   ar
    36    19    27    1
    37    27    28    1
    38    27    29    1
    39    27    30    1
    40    19    20   ar
    41    26    22   ar
    42    20    15   ar
    43    10     1    1
    44     9     4   ar
    45    37    32   ar
    46    42    36    1
    47    13    14    1
    48    42    43    1
@<TRIPOS>MOLECULE
*****
 43 48 0 0 0
SMALL
GASTEIGER

@<TRIPOS>ATOM
      1 C         140.8503  143.5058  161.9752 C.3     1  UNL1        0.0765
      2 C         140.3942  144.9304  161.8641 C.3     1  UNL1        0.0246
      3 C         140.3686  145.6075  160.5259 C.3     1  UNL1        0.0277
      4 C         140.7992  144.8599  159.2988 C.ar    1  UNL1       -0.0258
      5 C         140.7736  145.5371  157.9605 C.ar    1  UNL1       -0.0014
      6 C         141.2042  144.7895  156.7334 C.ar    1  UNL1        0.0371
      7 C         141.6603  143.3648  156.8446 C.ar    1  UNL1        0.1450
      8 C         141.6859  142.6878  158.1828 C.ar    1  UNL1        0.0330
      9 C         141.2553  143.4353  159.4099 C.ar    1  UNL1       -0.0215
     10 C         141.2808  142.7582  160.7481 C.3     1  UNL1        0.0457
     11 C         139.6106  142.2738  163.8976 C.2     1  UNL1        0.2458
     12 O         138.3197  142.3961  163.1435 O.2     1  UNL1       -0.2701
     13 N         140.8759  142.8286  163.3135 N.am    1  UNL1       -0.3021
     14 H         141.7231  142.7484  163.8084 H       1  UNL1        0.1497
     15 C         140.5890  141.4113  167.6458 C.ar    1  UNL1        0.0174
     16 C         140.5634  142.0883  166.3076 C.ar    1  UNL1        0.0060
     17 C         139.6362  141.5967  165.2359 C.ar    1  UNL1        0.0534
     18 C         138.7345  140.4279  165.5024 C.ar    1  UNL1        0.0084
     19 C         138.7601  139.7509  166.8406 C.ar    1  UNL1        0.0716
     20 C         139.6873  140.2425  167.9123 C.ar    1  UNL1        0.0053
     21 C         139.6996  142.7502  170.4858 C.3     1  UNL1        0.1537
     22 N         141.1074  142.5184  170.0229 N.ar    1  UNL1       -0.2488
     23 N         142.3536  142.8613  170.7841 N.ar    1  UNL1       -0.1676
     24 C         143.5326  142.4577  169.9492 C.ar    1  UNL1        0.1217
     25 C         143.0150  141.8655  168.6719 C.ar    1  UNL1        0.0412
     26 C         141.5162  141.9029  168.7175 C.ar    1  UNL1        0.0795
     27 C         137.8585  138.5820  167.1072 C.3     1  UNL1        0.4186
     28 F         136.9569  137.4133  167.3737 F       1  UNL1       -0.1659
     29 F         138.0947  138.0819  165.7129 F       1  UNL1       -0.1659
     30 F         137.6223  139.0822  168.5014 F       1  UNL1       -0.1659
     31 O         142.0909  142.6173  155.6175 O.3     1  UNL1       -0.4537
     32 C         143.2092  141.6210  155.7000 C.ar    1  UNL1        0.1455
     33 C         144.6331  142.0818  155.5989 C.ar    1  UNL1        0.0579
     34 C         145.7515  141.0855  155.6815 C.ar    1  UNL1        0.1034
     35 N         145.4459  139.6285  155.8651 N.ar    1  UNL1       -0.2291
     36 C         144.0219  139.1677  155.9662 C.ar    1  UNL1        0.1330
     37 C         142.9037  140.1640  155.8836 C.ar    1  UNL1        0.0445
     38 C         141.4797  139.7033  155.9847 C.3     1  UNL1        0.0419
     39 C         141.1741  138.2462  156.1683 C.3     1  UNL1        0.0903
     40 C         142.2925  137.2500  156.2508 C.2     1  UNL1        0.2275
     41 O         141.9869  135.7929  156.4345 O.2     1  UNL1       -0.2747
     42 N         143.7164  137.7107  156.1498 N.am    1  UNL1       -0.2695
     43 H         144.4504  137.0568  156.2039 H       1  UNL1        0.1562
@<TRIPOS>BOND
     1    21    22    1
     2    22    23   ar
     3    23    24   ar
     4    24    25   ar
     5    25    26   ar
     6    26    15    1
     7    15    16   ar
     8    16    17   ar
     9    17    11    1
    10    11    12    2
    11    11    13   am
    12     1    13    1
    13     1     2    1
    14     2     3    1
    15     3     4    1
    16     4     5   ar
    17     5     6   ar
    18     6     7   ar
    19     7    31    1
    20    31    32    1
    21    32    33   ar
    22    33    34   ar
    23    34    35   ar
    24    35    36   ar
    25    36    37   ar
    26    37    38    1
    27    38    39    1
    28    39    40    1
    29    40    41    2
    30    40    42   am
    31     7     8   ar
    32     8     9   ar
    33     9    10    1
    34    17    18   ar
    35    18    19   ar
    36    19    27    1
    37    27    28    1
    38    27    29    1
    39    27    30    1
    40    19    20   ar
    41    26    22   ar
    42    20    15   ar
    43    10     1    1
    44     9     4   ar
    45    37    32   ar
    46    42    36    1
    47    13    14    1
    48    42    43    1
@<TRIPOS>MOLECULE
*****
 43 48 0 0 0
SMALL
GASTEIGER

@<TRIPOS>ATOM
      1 C         140.7260  140.3452  161.2273 C.3     1  UNL1        0.0765
      2 C         140.4082  141.5844  160.4442 C.3     1  UNL1        0.0246
      3 C         140.8009  141.6801  158.9997 C.3     1  UNL1        0.0277
      4 C         141.5113  140.5365  158.3383 C.ar    1  UNL1       -0.0258
      5 C         141.9039  140.6322  156.8937 C.ar    1  UNL1       -0.0014
      6 C         142.6143  139.4886  156.2322 C.ar    1  UNL1        0.0371
      7 C         142.9321  138.2493  157.0154 C.ar    1  UNL1        0.1450
      8 C         142.5395  138.1537  158.4599 C.ar    1  UNL1        0.0330
      9 C         141.8290  139.2973  159.1213 C.ar    1  UNL1       -0.0215
     10 C         141.4364  139.2016  160.5658 C.3     1  UNL1        0.0457
     11 C         141.2513  140.7757  163.7350 C.2     1  UNL1        0.2458
     12 O         142.5619  141.3977  163.3537 O.2     1  UNL1       -0.2701
     13 N         140.3333  140.2495  162.6719 N.am    1  UNL1       -0.3021
     14 H         139.4731  139.8412  162.9221 H       1  UNL1        0.1497
     15 C         141.2758  141.2919  167.6699 C.ar    1  UNL1        0.0174
     16 C         141.6684  141.3876  166.2254 C.ar    1  UNL1        0.0060
     17 C         140.8586  140.6800  165.1796 C.ar    1  UNL1        0.0534
     18 C         139.6563  139.8767  165.5784 C.ar    1  UNL1        0.0084
     19 C         139.2637  139.7811  167.0229 C.ar    1  UNL1        0.0716
     20 C         140.0734  140.4886  168.0686 C.ar    1  UNL1        0.0053
     21 C         140.1675  143.5432  169.7562 C.3     1  UNL1        0.1537
     22 N         141.5761  143.0343  169.6746 N.ar    1  UNL1       -0.2488
     23 N         142.7227  143.4709  170.5377 N.ar    1  UNL1       -0.1676
     24 C         143.9407  142.7058  170.1121 C.ar    1  UNL1        0.1217
     25 C         143.5470  141.7965  168.9861 C.ar    1  UNL1        0.0412
     26 C         142.0856  141.9995  168.7156 C.ar    1  UNL1        0.0795
     27 C         138.0613  138.9778  167.4217 C.3     1  UNL1        0.4186
     28 F         136.8589  138.1745  167.8206 F       1  UNL1       -0.1659
     29 F         138.0973  139.6010  168.7856 F       1  UNL1       -0.1659
     30 F         138.0252  138.3545  166.0578 F       1  UNL1       -0.1659
     31 O         143.6425  137.1057  156.3539 O.3     1  UNL1       -0.4537
     32 C         142.8566  136.0505  155.6335 C.ar    1  UNL1        0.1455
     33 C         141.9796  136.4274  154.4765 C.ar    1  UNL1        0.0579
     34 C         141.1937  135.3721  153.7561 C.ar    1  UNL1        0.1034
     35 N         141.2850  133.9400  154.1928 N.ar    1  UNL1       -0.2291
     36 C         142.1621  133.5631  155.3499 C.ar    1  UNL1        0.1330
     37 C         142.9479  134.6184  156.0702 C.ar    1  UNL1        0.0445
     38 C         143.8250  134.2415  157.2273 C.3     1  UNL1        0.0419
     39 C         143.9162  132.8094  157.6639 C.3     1  UNL1        0.0903
     40 C         143.1303  131.7541  156.9435 C.2     1  UNL1        0.2275
     41 O         143.2216  130.3220  157.3802 O.2     1  UNL1       -0.2747
     42 N         142.2533  132.1310  155.7865 N.am    1  UNL1       -0.2695
     43 H         141.7375  131.4384  155.3137 H       1  UNL1        0.1562
@<TRIPOS>BOND
     1    21    22    1
     2    22    23   ar
     3    23    24   ar
     4    24    25   ar
     5    25    26   ar
     6    26    15    1
     7    15    16   ar
     8    16    17   ar
     9    17    11    1
    10    11    12    2
    11    11    13   am
    12     1    13    1
    13     1     2    1
    14     2     3    1
    15     3     4    1
    16     4     5   ar
    17     5     6   ar
    18     6     7   ar
    19     7    31    1
    20    31    32    1
    21    32    33   ar
    22    33    34   ar
    23    34    35   ar
    24    35    36   ar
    25    36    37   ar
    26    37    38    1
    27    38    39    1
    28    39    40    1
    29    40    41    2
    30    40    42   am
    31     7     8   ar
    32     8     9   ar
    33     9    10    1
    34    17    18   ar
    35    18    19   ar
    36    19    27    1
    37    27    28    1
    38    27    29    1
    39    27    30    1
    40    19    20   ar
    41    26    22   ar
    42    20    15   ar
    43    10     1    1
    44     9     4   ar
    45    37    32   ar
    46    42    36    1
    47    13    14    1
    48    42    43    1
@<TRIPOS>MOLECULE
*****
 43 48 0 0 0
SMALL
GASTEIGER

@<TRIPOS>ATOM
      1 C         140.7739  138.9104  161.2557 C.3     1  UNL1        0.0765
      2 C         139.2957  138.6697  161.3383 C.3     1  UNL1        0.0246
      3 C         138.4988  139.2736  162.4564 C.3     1  UNL1        0.0277
      4 C         139.1802  140.1182  163.4920 C.ar    1  UNL1       -0.0258
      5 C         138.3832  140.7221  164.6102 C.ar    1  UNL1       -0.0014
      6 C         139.0646  141.5666  165.6458 C.ar    1  UNL1        0.0371
      7 C         140.5429  141.8073  165.5632 C.ar    1  UNL1        0.1450
      8 C         141.3398  141.2034  164.4450 C.ar    1  UNL1        0.0330
      9 C         140.6584  140.3588  163.4095 C.ar    1  UNL1       -0.0215
     10 C         141.4553  139.7549  162.2913 C.3     1  UNL1        0.0457
     11 C         141.7324  139.0500  158.8449 C.2     1  UNL1        0.2458
     12 O         141.0970  140.3976  158.6704 O.2     1  UNL1       -0.2701
     13 N         141.5708  138.3064  160.1375 N.am    1  UNL1       -0.3021
     14 H         141.9879  137.4220  160.2521 H       1  UNL1        0.1497
     15 C         143.2761  136.3628  156.3658 C.ar    1  UNL1        0.0174
     16 C         142.4792  136.9668  157.4839 C.ar    1  UNL1        0.0060
     17 C         142.5293  138.4461  157.7268 C.ar    1  UNL1        0.0534
     18 C         143.3763  139.3216  156.8515 C.ar    1  UNL1        0.0084
     19 C         144.1732  138.7176  155.7334 C.ar    1  UNL1        0.0716
     20 C         144.1231  137.2383  155.4905 C.ar    1  UNL1        0.0053
     21 C         141.2658  134.8240  154.3066 C.3     1  UNL1        0.1537
     22 N         142.3020  134.1761  155.1765 N.ar    1  UNL1       -0.2488
     23 N         142.5960  132.7072  155.2525 N.ar    1  UNL1       -0.1676
     24 C         143.7017  132.5067  156.2461 C.ar    1  UNL1        0.1217
     25 C         144.0911  133.8517  156.7840 C.ar    1  UNL1        0.0412
     26 C         143.2260  134.8835  156.1230 C.ar    1  UNL1        0.0795
     27 C         145.0203  139.5931  154.8580 C.3     1  UNL1        0.4186
     28 F         145.8673  140.4685  153.9827 F       1  UNL1       -0.1659
     29 F         144.2591  139.1249  153.6533 F       1  UNL1       -0.1659
     30 F         145.7814  140.0613  156.0627 F       1  UNL1       -0.1659
     31 O         141.2243  142.6518  166.5988 O.3     1  UNL1       -0.4537
     32 C         141.0088  142.3705  168.0564 C.ar    1  UNL1        0.1455
     33 C         140.2223  143.3316  168.8975 C.ar    1  UNL1        0.0579
     34 C         140.0068  143.0503  170.3550 C.ar    1  UNL1        0.1034
     35 N         140.5779  141.8077  170.9714 N.ar    1  UNL1       -0.2291
     36 C         141.3644  140.8465  170.1302 C.ar    1  UNL1        0.1330
     37 C         141.5799  141.1279  168.6727 C.ar    1  UNL1        0.0445
     38 C         142.3664  140.1667  167.8316 C.3     1  UNL1        0.0419
     39 C         142.9375  138.9242  168.4480 C.3     1  UNL1        0.0903
     40 C         142.7220  138.6428  169.9055 C.2     1  UNL1        0.2275
     41 O         143.2931  137.4002  170.5219 O.2     1  UNL1       -0.2747
     42 N         141.9355  139.6040  170.7466 N.am    1  UNL1       -0.2695
     43 H         141.7941  139.4193  171.7033 H       1  UNL1        0.1562
@<TRIPOS>BOND
     1    21    22    1
     2    22    23   ar
     3    23    24   ar
     4    24    25   ar
     5    25    26   ar
     6    26    15    1
     7    15    16   ar
     8    16    17   ar
     9    17    11    1
    10    11    12    2
    11    11    13   am
    12     1    13    1
    13     1     2    1
    14     2     3    1
    15     3     4    1
    16     4     5   ar
    17     5     6   ar
    18     6     7   ar
    19     7    31    1
    20    31    32    1
    21    32    33   ar
    22    33    34   ar
    23    34    35   ar
    24    35    36   ar
    25    36    37   ar
    26    37    38    1
    27    38    39    1
    28    39    40    1
    29    40    41    2
    30    40    42   am
    31     7     8   ar
    32     8     9   ar
    33     9    10    1
    34    17    18   ar
    35    18    19   ar
    36    19    27    1
    37    27    28    1
    38    27    29    1
    39    27    30    1
    40    19    20   ar
    41    26    22   ar
    42    20    15   ar
    43    10     1    1
    44     9     4   ar
    45    37    32   ar
    46    42    36    1
    47    13    14    1
    48    42    43    1
@<TRIPOS>MOLECULE
*****
 43 48 0 0 0
SMALL
GASTEIGER

@<TRIPOS>ATOM
      1 C         142.3397  142.6761  159.2515 C.3     1  UNL1        0.0765
      2 C         143.7902  143.0555  159.2042 C.3     1  UNL1        0.0246
      3 C         144.7270  142.5718  160.2711 C.3     1  UNL1        0.0277
      4 C         144.2135  141.7087  161.3852 C.ar    1  UNL1       -0.0258
      5 C         145.1504  141.2250  162.4521 C.ar    1  UNL1       -0.0014
      6 C         144.6369  140.3619  163.5663 C.ar    1  UNL1        0.0371
      7 C         143.1863  139.9824  163.6135 C.ar    1  UNL1        0.1450
      8 C         142.2495  140.4661  162.5466 C.ar    1  UNL1        0.0330
      9 C         142.7630  141.3293  161.4325 C.ar    1  UNL1       -0.0215
     10 C         141.8262  141.8130  160.3656 C.3     1  UNL1        0.0457
     11 C         140.9252  144.5817  158.1941 C.2     1  UNL1        0.2458
     12 O         141.3845  145.5199  159.2705 O.2     1  UNL1       -0.2701
     13 N         141.4028  143.1598  158.1845 N.am    1  UNL1       -0.3021
     14 H         141.1013  142.5440  157.4780 H       1  UNL1        0.1497
     15 C         139.1379  146.9646  155.5716 C.ar    1  UNL1        0.0174
     16 C         140.0748  146.4809  156.6385 C.ar    1  UNL1        0.0060
     17 C         139.9883  145.0654  157.1272 C.ar    1  UNL1        0.0534
     18 C         138.9649  144.1335  156.5490 C.ar    1  UNL1        0.0084
     19 C         138.0280  144.6173  155.4821 C.ar    1  UNL1        0.0716
     20 C         138.1145  146.0328  154.9934 C.ar    1  UNL1        0.0053
     21 C         138.1765  149.6204  157.2064 C.3     1  UNL1        0.1537
     22 N         138.7825  149.6008  155.8344 N.ar    1  UNL1       -0.2488
     23 N         139.0530  150.7987  154.9729 N.ar    1  UNL1       -0.1676
     24 C         139.6621  150.3182  153.6891 C.ar    1  UNL1        0.1217
     25 C         139.7680  148.8235  153.7571 C.ar    1  UNL1        0.0412
     26 C         139.2244  148.3801  155.0830 C.ar    1  UNL1        0.0795
     27 C         137.0046  143.6854  154.9038 C.3     1  UNL1        0.4186
     28 F         135.9812  142.7536  154.3256 F       1  UNL1       -0.1659
     29 F         137.3628  142.6539  155.9322 F       1  UNL1       -0.1659
     30 F         136.6463  144.7170  153.8755 F       1  UNL1       -0.1659
     31 O         142.6728  139.1193  164.7276 O.3     1  UNL1       -0.4537
     32 C         141.9508  139.7410  165.8862 C.ar    1  UNL1        0.1455
     33 C         142.5999  140.8423  166.6708 C.ar    1  UNL1        0.0579
     34 C         141.8779  141.4640  167.8294 C.ar    1  UNL1        0.1034
     35 N         140.5068  140.9843  168.2033 N.ar    1  UNL1       -0.2291
     36 C         139.8576  139.8829  167.4187 C.ar    1  UNL1        0.1330
     37 C         140.5796  139.2613  166.2601 C.ar    1  UNL1        0.0445
     38 C         139.9305  138.1599  165.4755 C.3     1  UNL1        0.0419
     39 C         138.5593  137.6802  165.8494 C.3     1  UNL1        0.0903
     40 C         137.8373  138.3019  167.0080 C.2     1  UNL1        0.2275
     41 O         136.4662  137.8222  167.3820 O.2     1  UNL1       -0.2747
     42 N         138.4865  139.4032  167.7926 N.am    1  UNL1       -0.2695
     43 H         138.0126  139.8112  168.5530 H       1  UNL1        0.1562
@<TRIPOS>BOND
     1    21    22    1
     2    22    23   ar
     3    23    24   ar
     4    24    25   ar
     5    25    26   ar
     6    26    15    1
     7    15    16   ar
     8    16    17   ar
     9    17    11    1
    10    11    12    2
    11    11    13   am
    12     1    13    1
    13     1     2    1
    14     2     3    1
    15     3     4    1
    16     4     5   ar
    17     5     6   ar
    18     6     7   ar
    19     7    31    1
    20    31    32    1
    21    32    33   ar
    22    33    34   ar
    23    34    35   ar
    24    35    36   ar
    25    36    37   ar
    26    37    38    1
    27    38    39    1
    28    39    40    1
    29    40    41    2
    30    40    42   am
    31     7     8   ar
    32     8     9   ar
    33     9    10    1
    34    17    18   ar
    35    18    19   ar
    36    19    27    1
    37    27    28    1
    38    27    29    1
    39    27    30    1
    40    19    20   ar
    41    26    22   ar
    42    20    15   ar
    43    10     1    1
    44     9     4   ar
    45    37    32   ar
    46    42    36    1
    47    13    14    1
    48    42    43    1
