@<TRIPOS>MOLECULE
*****
 34 37 0 0 0
SMALL
GASTEIGER

@<TRIPOS>ATOM
      1 C         137.4594  138.0887  167.1838 C.3     1  UNL1        0.0323
      2 C         138.5303  139.1157  166.9635 C.ar    1  UNL1       -0.0060
      3 C         139.0901  140.0425  168.0016 C.ar    1  UNL1        0.0438
      4 C         140.1352  140.8957  167.3461 C.ar    1  UNL1        0.0435
      5 N         140.2213  140.4963  165.9028 N.ar    1  UNL1       -0.3137
      6 C         139.2295  139.3962  165.6664 C.ar    1  UNL1        0.0372
      7 C         138.5769  138.4122  164.7413 C.3     1  UNL1        0.0452
      8 C         138.4385  137.8080  163.3753 C.3     1  UNL1        0.0233
      9 C         138.8513  137.7455  161.9346 C.3     1  UNL1        0.0690
     10 N         139.7047  138.2413  160.8052 N.3     1  UNL1       -0.2972
     11 C         140.7702  139.1628  160.2896 C.3     1  UNL1        0.0738
     12 C         140.9122  138.8177  158.8368 C.3     1  UNL1        0.0189
     13 C         141.7621  140.2629  160.5261 C.3     1  UNL1        0.1029
     14 N         142.4146  141.2469  161.4512 N.pl3   1  UNL1       -0.3314
     15 C         142.5530  141.8511  162.8172 C.ar    1  UNL1        0.0505
     16 C         141.5598  141.1174  163.6687 C.ar    1  UNL1        0.0319
     17 C         141.4177  141.4626  165.1215 C.ar    1  UNL1        0.0646
     18 C         142.2690  142.5414  165.7228 C.ar    1  UNL1        0.0177
     19 C         143.2622  143.2750  164.8713 C.ar    1  UNL1        0.0072
     20 C         143.4043  142.9299  163.4185 C.ar    1  UNL1        0.0663
     21 C         140.8734  141.9261  168.1482 C.3     1  UNL1        0.0446
     22 C         140.5665  142.1034  169.6057 C.3     1  UNL1        0.0128
     23 C         140.6303  142.6418  171.0043 C.3     1  UNL1        0.0008
     24 C         141.6337  143.1436  169.4359 C.3     1  UNL1        0.0008
     25 C         139.5214  141.2501  170.2612 C.3     1  UNL1        0.0695
     26 C         138.7832  140.2197  169.4592 C.2     1  UNL1        0.1739
     27 O         137.7381  139.3664  170.1147 O.2     1  UNL1       -0.2913
     28 H         138.9628  138.4837  160.1485 H       1  UNL1        0.1233
     29 H         143.0666  141.7284  160.8923 H       1  UNL1        0.1469
     30 C         144.3976  143.6636  162.5669 C.2     1  UNL1        0.2439
     31 N         145.3487  142.8979  161.6956 N.am    1  UNL1       -0.3253
     32 O         144.4398  145.1628  162.5866 O.2     1  UNL1       -0.2703
     33 H         145.3210  141.9139  161.6827 H       1  UNL1        0.1453
     34 H         146.0007  143.3794  161.1367 H       1  UNL1        0.1453
@<TRIPOS>BOND
     1     1     2    1
     2     2     3   ar
     3     3     4   ar
     4     4     5   ar
     5     5     6   ar
     6     6     7    1
     7     7     8    1
     8     8     9    1
     9     9    10    1
    10    10    11    1
    11    11    12    1
    12    11    13    1
    13    13    14    1
    14    14    15    1
    15    15    16   ar
    16    16    17   ar
    17    17    18   ar
    18    18    19   ar
    19    19    20   ar
    20    20    30    1
    21    30    31   am
    22    30    32    2
    23     4    21    1
    24    21    22    1
    25    22    23    1
    26    22    24    1
    27    22    25    1
    28    25    26    1
    29    26    27    2
    30     6     2   ar
    31    20    15   ar
    32    26     3    1
    33    17     5    1
    34    10    28    1
    35    14    29    1
    36    31    33    1
    37    31    34    1
@<TRIPOS>MOLECULE
*****
 34 37 0 0 0
SMALL
GASTEIGER

@<TRIPOS>ATOM
      1 C         144.1011  137.6462  166.8707 C.3     1  UNL1        0.0323
      2 C         143.2448  138.8704  166.7365 C.ar    1  UNL1       -0.0060
      3 C         142.5408  139.5809  167.8543 C.ar    1  UNL1        0.0438
      4 C         141.8030  140.7487  167.2695 C.ar    1  UNL1        0.0435
      5 N         142.0512  140.7600  165.7902 N.ar    1  UNL1       -0.3137
      6 C         142.9422  139.5992  165.4608 C.ar    1  UNL1        0.0372
      7 C         143.6996  138.7884  164.4513 C.3     1  UNL1        0.0452
      8 C         144.1203  138.5450  163.0322 C.3     1  UNL1        0.0233
      9 C         144.0917  138.9340  161.5839 C.3     1  UNL1        0.0690
     10 N         143.6214  139.8514  160.4943 N.3     1  UNL1       -0.2972
     11 C         142.8353  141.0513  160.0554 C.3     1  UNL1        0.0738
     12 C         143.0383  141.1266  158.5712 C.3     1  UNL1        0.0189
     13 C         141.9443  142.2121  160.3849 C.3     1  UNL1        0.1029
     14 N         141.1870  143.0228  161.3943 N.pl3   1  UNL1       -0.3314
     15 C         140.7662  143.2662  162.8134 C.ar    1  UNL1        0.0505
     16 C         141.4165  142.1703  163.6046 C.ar    1  UNL1        0.0319
     17 C         141.2136  142.0950  165.0889 C.ar    1  UNL1        0.0646
     18 C         140.3603  143.1155  165.7819 C.ar    1  UNL1        0.0177
     19 C         139.7100  144.2114  164.9908 C.ar    1  UNL1        0.0072
     20 C         139.9129  144.2868  163.5065 C.ar    1  UNL1        0.0663
     21 C         141.0007  141.6508  168.1596 C.3     1  UNL1        0.0446
     22 C         140.9360  141.3853  169.6345 C.3     1  UNL1        0.0128
     23 C         140.5711  141.5444  171.0807 C.3     1  UNL1        0.0008
     24 C         140.0716  142.6083  169.5520 C.3     1  UNL1        0.0008
     25 C         141.6737  140.2175  170.2193 C.3     1  UNL1        0.0695
     26 C         142.4761  139.3153  169.3293 C.2     1  UNL1        0.1739
     27 O         143.2138  138.1475  169.9140 O.2     1  UNL1       -0.2913
     28 H         143.1910  139.1559  159.8847 H       1  UNL1        0.1233
     29 H         140.7601  143.7421  160.8750 H       1  UNL1        0.1469
     30 C         139.2626  145.3828  162.7153 C.2     1  UNL1        0.2439
     31 N         140.0689  146.5672  162.2713 N.am    1  UNL1       -0.3253
     32 O         137.8061  145.2943  162.3680 O.2     1  UNL1       -0.2703
     33 H         141.0249  146.6252  162.4992 H       1  UNL1        0.1453
     34 H         139.6421  147.2865  161.7520 H       1  UNL1        0.1453
@<TRIPOS>BOND
     1     1     2    1
     2     2     3   ar
     3     3     4   ar
     4     4     5   ar
     5     5     6   ar
     6     6     7    1
     7     7     8    1
     8     8     9    1
     9     9    10    1
    10    10    11    1
    11    11    12    1
    12    11    13    1
    13    13    14    1
    14    14    15    1
    15    15    16   ar
    16    16    17   ar
    17    17    18   ar
    18    18    19   ar
    19    19    20   ar
    20    20    30    1
    21    30    31   am
    22    30    32    2
    23     4    21    1
    24    21    22    1
    25    22    23    1
    26    22    24    1
    27    22    25    1
    28    25    26    1
    29    26    27    2
    30     6     2   ar
    31    20    15   ar
    32    26     3    1
    33    17     5    1
    34    10    28    1
    35    14    29    1
    36    31    33    1
    37    31    34    1
@<TRIPOS>MOLECULE
*****
 34 37 0 0 0
SMALL
GASTEIGER

@<TRIPOS>ATOM
      1 C         139.7216  137.7195  162.8027 C.3     1  UNL1        0.0323
      2 C         140.4882  138.6234  163.7221 C.ar    1  UNL1       -0.0060
      3 C         141.7516  139.3583  163.3849 C.ar    1  UNL1        0.0438
      4 C         142.1701  140.1401  164.5947 C.ar    1  UNL1        0.0435
      5 N         141.1654  139.8884  165.6797 N.ar    1  UNL1       -0.3137
      6 C         140.1260  138.9510  165.1405 C.ar    1  UNL1        0.0372
      7 C         138.8664  138.1592  165.3315 C.3     1  UNL1        0.0452
      8 C         137.7243  137.7250  166.2016 C.3     1  UNL1        0.0233
      9 C         137.0056  137.7649  167.5175 C.3     1  UNL1        0.0690
     10 N         136.9030  138.2681  168.9269 N.3     1  UNL1       -0.2972
     11 C         137.4439  139.0999  170.0519 C.3     1  UNL1        0.0738
     12 C         136.4807  138.8958  171.1835 C.3     1  UNL1        0.0189
     13 C         138.4834  140.0373  170.5911 C.3     1  UNL1        0.1029
     14 N         139.7429  140.8291  170.4001 N.pl3   1  UNL1       -0.3314
     15 C         140.8850  141.2632  169.5300 C.ar    1  UNL1        0.0505
     16 C         140.6582  140.5722  168.2182 C.ar    1  UNL1        0.0319
     17 C         141.6214  140.7763  167.0866 C.ar    1  UNL1        0.0646
     18 C         142.8114  141.6714  167.2668 C.ar    1  UNL1        0.0177
     19 C         143.0383  142.3624  168.5787 C.ar    1  UNL1        0.0072
     20 C         142.0751  142.1583  169.7103 C.ar    1  UNL1        0.0663
     21 C         143.4121  140.9802  164.5520 C.3     1  UNL1        0.0446
     22 C         144.2355  141.0386  163.2996 C.3     1  UNL1        0.0128
     23 C         145.3371  141.4136  162.3531 C.3     1  UNL1        0.0008
     24 C         145.0366  141.9506  164.1806 C.3     1  UNL1        0.0008
     25 C         143.8169  140.2567  162.0898 C.3     1  UNL1        0.0695
     26 C         142.5750  139.4166  162.1324 C.2     1  UNL1        0.1739
     27 O         142.1565  138.6348  160.9227 O.2     1  UNL1       -0.2913
     28 H         136.8635  137.3692  169.4072 H       1  UNL1        0.1233
     29 H         139.8918  141.2826  171.2612 H       1  UNL1        0.1469
     30 C         142.3019  142.8494  171.0222 C.2     1  UNL1        0.2439
     31 N         143.3207  143.9455  171.1262 N.am    1  UNL1       -0.3253
     32 O         141.5101  142.4443  172.2300 O.2     1  UNL1       -0.2703
     33 H         143.8404  144.2113  170.3335 H       1  UNL1        0.1453
     34 H         143.4695  144.3990  171.9872 H       1  UNL1        0.1453
@<TRIPOS>BOND
     1     1     2    1
     2     2     3   ar
     3     3     4   ar
     4     4     5   ar
     5     5     6   ar
     6     6     7    1
     7     7     8    1
     8     8     9    1
     9     9    10    1
    10    10    11    1
    11    11    12    1
    12    11    13    1
    13    13    14    1
    14    14    15    1
    15    15    16   ar
    16    16    17   ar
    17    17    18   ar
    18    18    19   ar
    19    19    20   ar
    20    20    30    1
    21    30    31   am
    22    30    32    2
    23     4    21    1
    24    21    22    1
    25    22    23    1
    26    22    24    1
    27    22    25    1
    28    25    26    1
    29    26    27    2
    30     6     2   ar
    31    20    15   ar
    32    26     3    1
    33    17     5    1
    34    10    28    1
    35    14    29    1
    36    31    33    1
    37    31    34    1
@<TRIPOS>MOLECULE
*****
 34 37 0 0 0
SMALL
GASTEIGER

@<TRIPOS>ATOM
      1 C         144.9853  143.4892  166.1616 C.3     1  UNL1        0.0323
      2 C         143.7350  142.6951  165.9248 C.ar    1  UNL1       -0.0060
      3 C         142.8307  142.1376  166.9838 C.ar    1  UNL1        0.0438
      4 C         141.7063  141.4169  166.3010 C.ar    1  UNL1        0.0435
      5 N         141.9158  141.5289  164.8199 N.ar    1  UNL1       -0.3137
      6 C         143.1695  142.3188  164.5874 C.ar    1  UNL1        0.0372
      7 C         144.1617  142.9334  163.6452 C.3     1  UNL1        0.0452
      8 C         144.6265  143.2080  162.2457 C.3     1  UNL1        0.0233
      9 C         144.4393  143.0691  160.7640 C.3     1  UNL1        0.0690
     10 N         143.6503  142.5538  159.5970 N.3     1  UNL1       -0.2972
     11 C         142.4708  141.8002  159.0574 C.3     1  UNL1        0.0738
     12 C         142.6145  141.8705  157.5660 C.3     1  UNL1        0.0189
     13 C         141.2170  141.0103  159.2899 C.3     1  UNL1        0.1029
     14 N         140.2249  140.3957  160.2320 N.pl3   1  UNL1       -0.3314
     15 C         139.7601  140.1211  161.6316 C.ar    1  UNL1        0.0505
     16 C         140.7790  140.7779  162.5149 C.ar    1  UNL1        0.0319
     17 C         140.6353  140.7076  164.0064 C.ar    1  UNL1        0.0646
     18 C         139.4727  139.9806  164.6144 C.ar    1  UNL1        0.0177
     19 C         138.4538  139.3238  163.7311 C.ar    1  UNL1        0.0072
     20 C         138.5975  139.3940  162.2396 C.ar    1  UNL1        0.0663
     21 C         140.6371  140.7518  167.1161 C.3     1  UNL1        0.0446
     22 C         140.6922  140.8074  168.6140 C.3     1  UNL1        0.0128
     23 C         140.3108  140.5860  170.0477 C.3     1  UNL1        0.0008
     24 C         139.4354  140.0098  168.4291 C.3     1  UNL1        0.0008
     25 C         141.8166  141.5281  169.2968 C.3     1  UNL1        0.0695
     26 C         142.8858  142.1932  168.4818 C.2     1  UNL1        0.1739
     27 O         144.0102  142.9140  169.1647 O.2     1  UNL1       -0.2913
     28 H         144.3916  142.0308  159.1308 H       1  UNL1        0.1233
     29 H         139.5561  139.9646  159.6522 H       1  UNL1        0.1469
     30 C         137.5786  138.7372  161.3562 C.2     1  UNL1        0.2439
     31 N         137.1612  137.3203  161.6176 N.am    1  UNL1       -0.3253
     32 O         136.9770  139.4972  160.2115 O.2     1  UNL1       -0.2703
     33 H         137.5560  136.8215  162.3689 H       1  UNL1        0.1453
     34 H         136.4925  136.8892  161.0378 H       1  UNL1        0.1453
@<TRIPOS>BOND
     1     1     2    1
     2     2     3   ar
     3     3     4   ar
     4     4     5   ar
     5     5     6   ar
     6     6     7    1
     7     7     8    1
     8     8     9    1
     9     9    10    1
    10    10    11    1
    11    11    12    1
    12    11    13    1
    13    13    14    1
    14    14    15    1
    15    15    16   ar
    16    16    17   ar
    17    17    18   ar
    18    18    19   ar
    19    19    20   ar
    20    20    30    1
    21    30    31   am
    22    30    32    2
    23     4    21    1
    24    21    22    1
    25    22    23    1
    26    22    24    1
    27    22    25    1
    28    25    26    1
    29    26    27    2
    30     6     2   ar
    31    20    15   ar
    32    26     3    1
    33    17     5    1
    34    10    28    1
    35    14    29    1
    36    31    33    1
    37    31    34    1
@<TRIPOS>MOLECULE
*****
 34 37 0 0 0
SMALL
GASTEIGER

@<TRIPOS>ATOM
      1 C         143.6397  142.6122  168.8659 C.3     1  UNL1        0.0323
      2 C         142.5598  141.9437  168.0679 C.ar    1  UNL1       -0.0060
      3 C         141.3379  141.2749  168.6243 C.ar    1  UNL1        0.0438
      4 C         140.5351  140.7445  167.4735 C.ar    1  UNL1        0.0435
      5 N         141.2609  141.0856  166.2059 N.ar    1  UNL1       -0.3137
      6 C         142.5121  141.8267  166.5732 C.ar    1  UNL1        0.0372
      7 C         143.7741  142.5274  166.1652 C.3     1  UNL1        0.0452
      8 C         144.7085  143.0001  165.0911 C.3     1  UNL1        0.0233
      9 C         145.0650  143.1179  163.6390 C.3     1  UNL1        0.0690
     10 N         144.7481  142.8494  162.1976 N.3     1  UNL1       -0.2972
     11 C         143.8427  142.2664  161.1533 C.3     1  UNL1        0.0738
     12 C         144.5109  142.5720  159.8457 C.3     1  UNL1        0.0189
     13 C         142.5913  141.5253  160.7860 C.3     1  UNL1        0.1029
     14 N         141.3295  140.8246  161.1940 N.pl3   1  UNL1       -0.3314
     15 C         140.3950  140.3520  162.2681 C.ar    1  UNL1        0.0505
     16 C         141.0278  140.7927  163.5547 C.ar    1  UNL1        0.0319
     17 C         140.3595  140.4871  164.8623 C.ar    1  UNL1        0.0646
     18 C         139.0586  139.7407  164.8834 C.ar    1  UNL1        0.0177
     19 C         138.4258  139.3000  163.5968 C.ar    1  UNL1        0.0072
     20 C         139.0941  139.6056  162.2891 C.ar    1  UNL1        0.0663
     21 C         139.2470  140.0196  167.7287 C.3     1  UNL1        0.0446
     22 C         138.7615  139.8249  169.1345 C.3     1  UNL1        0.0128
     23 C         137.8926  139.3941  170.2788 C.3     1  UNL1        0.0008
     24 C         137.6570  139.1450  168.3812 C.3     1  UNL1        0.0008
     25 C         139.5643  140.3552  170.2853 C.3     1  UNL1        0.0695
     26 C         140.8525  141.0802  170.0302 C.2     1  UNL1        0.1739
     27 O         141.6553  141.6105  171.1810 O.2     1  UNL1       -0.2913
     28 H         145.6089  142.3667  161.9397 H       1  UNL1        0.1233
     29 H         140.9142  140.5353  160.3496 H       1  UNL1        0.1469
     30 C         138.4614  139.1648  161.0025 C.2     1  UNL1        0.2439
     31 N         137.0026  139.4160  160.7594 N.am    1  UNL1       -0.3253
     32 O         139.2874  138.4730  159.9589 O.2     1  UNL1       -0.2703
     33 H         136.4605  139.8700  161.4444 H       1  UNL1        0.1453
     34 H         136.5874  139.1267  159.9150 H       1  UNL1        0.1453
@<TRIPOS>BOND
     1     1     2    1
     2     2     3   ar
     3     3     4   ar
     4     4     5   ar
     5     5     6   ar
     6     6     7    1
     7     7     8    1
     8     8     9    1
     9     9    10    1
    10    10    11    1
    11    11    12    1
    12    11    13    1
    13    13    14    1
    14    14    15    1
    15    15    16   ar
    16    16    17   ar
    17    17    18   ar
    18    18    19   ar
    19    19    20   ar
    20    20    30    1
    21    30    31   am
    22    30    32    2
    23     4    21    1
    24    21    22    1
    25    22    23    1
    26    22    24    1
    27    22    25    1
    28    25    26    1
    29    26    27    2
    30     6     2   ar
    31    20    15   ar
    32    26     3    1
    33    17     5    1
    34    10    28    1
    35    14    29    1
    36    31    33    1
    37    31    34    1
@<TRIPOS>MOLECULE
*****
 34 37 0 0 0
SMALL
GASTEIGER

@<TRIPOS>ATOM
      1 C         143.2286  140.2357  165.3248 C.3     1  UNL1        0.0323
      2 C         142.1636  140.7579  164.4066 C.ar    1  UNL1       -0.0060
      3 C         141.1696  141.8334  164.7306 C.ar    1  UNL1        0.0438
      4 C         140.2973  142.0364  163.5273 C.ar    1  UNL1        0.0435
      5 N         140.7523  141.0862  162.4595 N.ar    1  UNL1       -0.3137
      6 C         141.9056  140.2961  163.0028 C.ar    1  UNL1        0.0372
      7 C         142.9564  139.2407  162.8238 C.3     1  UNL1        0.0452
      8 C         143.6228  138.2027  161.9702 C.3     1  UNL1        0.0233
      9 C         143.7264  137.4605  160.6709 C.3     1  UNL1        0.0690
     10 N         143.2394  137.2127  159.2740 N.3     1  UNL1       -0.2972
     11 C         142.2923  137.5258  158.1537 C.3     1  UNL1        0.0738
     12 C         142.6909  136.6043  157.0393 C.3     1  UNL1        0.0189
     13 C         141.1389  138.3160  157.6103 C.3     1  UNL1        0.1029
     14 N         140.0883  139.3714  157.7894 N.pl3   1  UNL1       -0.3314
     15 C         139.4218  140.4094  158.6430 C.ar    1  UNL1        0.0505
     16 C         140.1641  140.3755  159.9460 C.ar    1  UNL1        0.0319
     17 C         139.7655  141.2970  161.0603 C.ar    1  UNL1        0.0646
     18 C         138.6246  142.2524  160.8718 C.ar    1  UNL1        0.0177
     19 C         137.8823  142.2863  159.5688 C.ar    1  UNL1        0.0072
     20 C         138.2809  141.3647  158.4544 C.ar    1  UNL1        0.0663
     21 C         139.2015  143.0602  163.5594 C.3     1  UNL1        0.0446
     22 C         138.9779  143.8810  164.7948 C.3     1  UNL1        0.0128
     23 C         138.3791  144.8946  165.7244 C.3     1  UNL1        0.0008
     24 C         137.8977  144.4360  163.9144 C.3     1  UNL1        0.0008
     25 C         139.8501  143.6780  165.9981 C.3     1  UNL1        0.0695
     26 C         140.9459  142.6543  165.9661 C.2     1  UNL1        0.1739
     27 O         141.8182  142.4513  167.1694 O.2     1  UNL1       -0.2913
     28 H         143.0591  136.2117  159.3507 H       1  UNL1        0.1233
     29 H         139.6011  139.3936  156.9342 H       1  UNL1        0.1469
     30 C         137.5386  141.3986  157.1514 C.2     1  UNL1        0.2439
     31 N         136.8822  142.6677  156.6949 N.am    1  UNL1       -0.3253
     32 O         137.4526  140.1633  156.3048 O.2     1  UNL1       -0.2703
     33 H         136.9386  143.4785  157.2505 H       1  UNL1        0.1453
     34 H         136.3950  142.6900  155.8397 H       1  UNL1        0.1453
@<TRIPOS>BOND
     1     1     2    1
     2     2     3   ar
     3     3     4   ar
     4     4     5   ar
     5     5     6   ar
     6     6     7    1
     7     7     8    1
     8     8     9    1
     9     9    10    1
    10    10    11    1
    11    11    12    1
    12    11    13    1
    13    13    14    1
    14    14    15    1
    15    15    16   ar
    16    16    17   ar
    17    17    18   ar
    18    18    19   ar
    19    19    20   ar
    20    20    30    1
    21    30    31   am
    22    30    32    2
    23     4    21    1
    24    21    22    1
    25    22    23    1
    26    22    24    1
    27    22    25    1
    28    25    26    1
    29    26    27    2
    30     6     2   ar
    31    20    15   ar
    32    26     3    1
    33    17     5    1
    34    10    28    1
    35    14    29    1
    36    31    33    1
    37    31    34    1
@<TRIPOS>MOLECULE
*****
 34 37 0 0 0
SMALL
GASTEIGER

@<TRIPOS>ATOM
      1 C         144.6246  142.5412  160.6304 C.3     1  UNL1        0.0323
      2 C         143.4806  141.7023  161.1177 C.ar    1  UNL1       -0.0060
      3 C         142.5812  140.8570  160.2652 C.ar    1  UNL1        0.0438
      4 C         141.5799  140.1937  161.1637 C.ar    1  UNL1        0.0435
      5 N         141.8604  140.6290  162.5715 N.ar    1  UNL1       -0.3137
      6 C         143.0350  141.5613  162.5430 C.ar    1  UNL1        0.0372
      7 C         144.0090  142.4461  163.2631 C.3     1  UNL1        0.0452
      8 C         144.5212  143.0463  164.5389 C.3     1  UNL1        0.0233
      9 C         144.4345  143.2010  166.0283 C.3     1  UNL1        0.0690
     10 N         143.7720  142.8688  167.3324 N.3     1  UNL1       -0.2972
     11 C         142.7113  142.1387  168.1018 C.3     1  UNL1        0.0738
     12 C         142.9315  142.5295  169.5331 C.3     1  UNL1        0.0189
     13 C         141.5366  141.2063  168.1302 C.3     1  UNL1        0.1029
     14 N         140.5627  140.3216  167.4101 N.pl3   1  UNL1       -0.3314
     15 C         140.0504  139.7214  166.1344 C.ar    1  UNL1        0.0505
     16 C         140.9424  140.2713  165.0611 C.ar    1  UNL1        0.0319
     17 C         140.7222  139.8805  163.6298 C.ar    1  UNL1        0.0646
     18 C         139.6100  138.9399  163.2717 C.ar    1  UNL1        0.0177
     19 C         138.7180  138.3900  164.3450 C.ar    1  UNL1        0.0072
     20 C         138.9382  138.7808  165.7763 C.ar    1  UNL1        0.0663
     21 C         140.5421  139.2790  160.5838 C.3     1  UNL1        0.0446
     22 C         140.5055  139.0277  159.1055 C.3     1  UNL1        0.0128
     23 C         140.0685  138.4799  157.7792 C.3     1  UNL1        0.0008
     24 C         139.3524  138.1741  159.5433 C.3     1  UNL1        0.0008
     25 C         141.5068  139.6910  158.2070 C.3     1  UNL1        0.0695
     26 C         142.5447  140.6057  158.7868 C.2     1  UNL1        0.1739
     27 O         143.5460  141.2690  157.8884 O.2     1  UNL1       -0.2913
     28 H         143.5584  143.8173  167.6408 H       1  UNL1        0.1233
     29 H         139.9772  139.9607  168.1146 H       1  UNL1        0.1469
     30 C         138.0462  138.2309  166.8497 C.2     1  UNL1        0.2439
     31 N         137.3435  136.9219  166.6432 N.am    1  UNL1       -0.3253
     32 O         137.8570  138.9901  168.1295 O.2     1  UNL1       -0.2703
     33 H         137.4677  136.4236  165.8033 H       1  UNL1        0.1453
     34 H         136.7581  136.5610  167.3477 H       1  UNL1        0.1453
@<TRIPOS>BOND
     1     1     2    1
     2     2     3   ar
     3     3     4   ar
     4     4     5   ar
     5     5     6   ar
     6     6     7    1
     7     7     8    1
     8     8     9    1
     9     9    10    1
    10    10    11    1
    11    11    12    1
    12    11    13    1
    13    13    14    1
    14    14    15    1
    15    15    16   ar
    16    16    17   ar
    17    17    18   ar
    18    18    19   ar
    19    19    20   ar
    20    20    30    1
    21    30    31   am
    22    30    32    2
    23     4    21    1
    24    21    22    1
    25    22    23    1
    26    22    24    1
    27    22    25    1
    28    25    26    1
    29    26    27    2
    30     6     2   ar
    31    20    15   ar
    32    26     3    1
    33    17     5    1
    34    10    28    1
    35    14    29    1
    36    31    33    1
    37    31    34    1
@<TRIPOS>MOLECULE
*****
 34 37 0 0 0
SMALL
GASTEIGER

@<TRIPOS>ATOM
      1 C         139.1130  144.8499  166.5243 C.3     1  UNL1        0.0323
      2 C         139.9137  143.6551  166.0987 C.ar    1  UNL1       -0.0060
      3 C         140.5364  142.6404  167.0112 C.ar    1  UNL1        0.0438
      4 C         141.2398  141.6233  166.1623 C.ar    1  UNL1        0.0435
      5 N         141.0518  142.0094  164.7250 N.ar    1  UNL1       -0.3137
      6 C         140.2323  143.2650  164.6857 C.ar    1  UNL1        0.0372
      7 C         139.5568  144.3514  163.9025 C.3     1  UNL1        0.0452
      8 C         139.2064  144.9774  162.5851 C.3     1  UNL1        0.0233
      9 C         139.2750  144.9753  161.0868 C.3     1  UNL1        0.0690
     10 N         139.7442  144.3457  159.8087 N.3     1  UNL1       -0.2972
     11 C         140.4884  143.2572  159.0935 C.3     1  UNL1        0.0738
     12 C         140.3425  143.5801  157.6360 C.3     1  UNL1        0.0189
     13 C         141.3080  142.0015  159.1329 C.3     1  UNL1        0.1029
     14 N         141.9834  140.9152  159.9161 N.pl3   1  UNL1       -0.3314
     15 C         142.3338  140.2891  161.2334 C.ar    1  UNL1        0.0505
     16 C         141.7057  141.1785  162.2652 C.ar    1  UNL1        0.0319
     17 C         141.8516  140.8555  163.7227 C.ar    1  UNL1        0.0646
     18 C         142.6255  139.6432  164.1484 C.ar    1  UNL1        0.0177
     19 C         143.2536  138.7538  163.1167 C.ar    1  UNL1        0.0072
     20 C         143.1077  139.0768  161.6592 C.ar    1  UNL1        0.0663
     21 C         141.9607  140.4771  166.8077 C.3     1  UNL1        0.0446
     22 C         141.9781  140.3479  168.3019 C.3     1  UNL1        0.0128
     23 C         142.2757  139.7993  169.6660 C.3     1  UNL1        0.0008
     24 C         142.7848  139.1403  167.9267 C.3     1  UNL1        0.0008
     25 C         141.2747  141.3650  169.1509 C.3     1  UNL1        0.0695
     26 C         140.5539  142.5112  168.5056 C.2     1  UNL1        0.1739
     27 O         139.8504  143.5283  169.3545 O.2     1  UNL1       -0.2913
     28 H         140.2322  145.1493  159.4131 H       1  UNL1        0.1233
     29 H         142.3957  140.3315  159.2389 H       1  UNL1        0.1469
     30 C         143.7358  138.1874  160.6274 C.2     1  UNL1        0.2439
     31 N         144.6687  137.0914  161.0497 N.am    1  UNL1       -0.3253
     32 O         143.4310  138.3941  159.1733 O.2     1  UNL1       -0.2703
     33 H         144.8688  136.9557  162.0041 H       1  UNL1        0.1453
     34 H         145.0810  136.5077  160.3725 H       1  UNL1        0.1453
@<TRIPOS>BOND
     1     1     2    1
     2     2     3   ar
     3     3     4   ar
     4     4     5   ar
     5     5     6   ar
     6     6     7    1
     7     7     8    1
     8     8     9    1
     9     9    10    1
    10    10    11    1
    11    11    12    1
    12    11    13    1
    13    13    14    1
    14    14    15    1
    15    15    16   ar
    16    16    17   ar
    17    17    18   ar
    18    18    19   ar
    19    19    20   ar
    20    20    30    1
    21    30    31   am
    22    30    32    2
    23     4    21    1
    24    21    22    1
    25    22    23    1
    26    22    24    1
    27    22    25    1
    28    25    26    1
    29    26    27    2
    30     6     2   ar
    31    20    15   ar
    32    26     3    1
    33    17     5    1
    34    10    28    1
    35    14    29    1
    36    31    33    1
    37    31    34    1
@<TRIPOS>MOLECULE
*****
 34 37 0 0 0
SMALL
GASTEIGER

@<TRIPOS>ATOM
      1 C         139.7369  144.0443  166.3023 C.3     1  UNL1        0.0323
      2 C         140.5415  143.1155  165.4422 C.ar    1  UNL1       -0.0060
      3 C         141.2669  141.8881  165.9084 C.ar    1  UNL1        0.0438
      4 C         141.9357  141.2651  164.7191 C.ar    1  UNL1        0.0435
      5 N         141.6237  142.1074  163.5178 N.ar    1  UNL1       -0.3137
      6 C         140.7621  143.2510  163.9647 C.ar    1  UNL1        0.0372
      7 C         139.9919  144.4984  163.6475 C.3     1  UNL1        0.0452
      8 C         139.5194  145.5155  162.6513 C.3     1  UNL1        0.0233
      9 C         139.4714  146.0296  161.2430 C.3     1  UNL1        0.0690
     10 N         139.8606  145.9030  159.7999 N.3     1  UNL1       -0.2972
     11 C         140.5828  145.1696  158.7087 C.3     1  UNL1        0.0738
     12 C         140.3134  145.9622  157.4641 C.3     1  UNL1        0.0189
     13 C         141.4444  144.0260  158.2619 C.3     1  UNL1        0.1029
     14 N         142.2146  142.7786  158.5790 N.pl3   1  UNL1       -0.3314
     15 C         142.6871  141.7615  159.5753 C.ar    1  UNL1        0.0505
     16 C         142.1118  142.2067  160.8871 C.ar    1  UNL1        0.0319
     17 C         142.3812  141.4141  162.1317 C.ar    1  UNL1        0.0646
     18 C         143.2259  140.1764  162.0646 C.ar    1  UNL1        0.0177
     19 C         143.8012  139.7313  160.7528 C.ar    1  UNL1        0.0072
     20 C         143.5318  140.5238  159.5081 C.ar    1  UNL1        0.0663
     21 C         142.7424  140.0112  164.8838 C.3     1  UNL1        0.0446
     22 C         142.8803  139.3804  166.2376 C.3     1  UNL1        0.0128
     23 C         143.3012  138.4170  167.3075 C.3     1  UNL1        0.0008
     24 C         143.6953  138.4228  165.4199 C.3     1  UNL1        0.0008
     25 C         142.2114  140.0034  167.4269 C.3     1  UNL1        0.0695
     26 C         141.4047  141.2572  167.2624 C.2     1  UNL1        0.1739
     27 O         140.7359  141.8803  168.4517 O.2     1  UNL1       -0.2913
     28 H         140.2892  146.8203  159.6766 H       1  UNL1        0.1233
     29 H         142.5922  142.4864  157.7180 H       1  UNL1        0.1469
     30 C         144.1071  140.0787  158.1963 C.2     1  UNL1        0.2439
     31 N         145.2448  140.8376  157.5801 N.am    1  UNL1       -0.3253
     32 O         143.5447  138.8747  157.5006 O.2     1  UNL1       -0.2703
     33 H         145.6140  141.6279  158.0367 H       1  UNL1        0.1453
     34 H         145.6224  140.5455  156.7191 H       1  UNL1        0.1453
@<TRIPOS>BOND
     1     1     2    1
     2     2     3   ar
     3     3     4   ar
     4     4     5   ar
     5     5     6   ar
     6     6     7    1
     7     7     8    1
     8     8     9    1
     9     9    10    1
    10    10    11    1
    11    11    12    1
    12    11    13    1
    13    13    14    1
    14    14    15    1
    15    15    16   ar
    16    16    17   ar
    17    17    18   ar
    18    18    19   ar
    19    19    20   ar
    20    20    30    1
    21    30    31   am
    22    30    32    2
    23     4    21    1
    24    21    22    1
    25    22    23    1
    26    22    24    1
    27    22    25    1
    28    25    26    1
    29    26    27    2
    30     6     2   ar
    31    20    15   ar
    32    26     3    1
    33    17     5    1
    34    10    28    1
    35    14    29    1
    36    31    33    1
    37    31    34    1
