@<TRIPOS>MOLECULE
*****
 30 34 0 0 0
SMALL
GASTEIGER

@<TRIPOS>ATOM
      1 C         140.9544  143.8376  162.5832 C.2     1  UNL1        0.0875
      2 C         139.9126  144.8070  163.0574 C.2     1  UNL1        0.0944
      3 BR        139.3796  144.7103  164.4562 Br      1  UNL1       -0.0439
      4 C         139.4039  145.8731  162.1330 C.2     1  UNL1        0.2434
      5 N         139.9370  145.9698  160.7342 N.2     1  UNL1       -0.0304
      6 C         140.9787  145.0004  160.2599 C.2     1  UNL1        0.4031
      7 N         141.6862  144.8507  158.9458 N.2     1  UNL1        0.0326
      8 C         142.6322  143.6920  159.0581 C.cat   1  UNL1        0.4596
      9 N         142.5093  143.1256  160.4416 N.2     1  UNL1       -0.0725
     10 C         141.4874  143.9343  161.1844 C.3     1  UNL1        0.3273
     11 N         143.5414  143.1881  157.9767 N.pl3   1  UNL1       -0.1832
     12 C         143.1110  143.2586  156.5415 C.3     1  UNL1        0.1857
     13 C         144.0203  142.7547  155.4602 C.3     1  UNL1        0.1133
     14 N         145.3600  142.1802  155.8140 N.3     1  UNL1       -0.2660
     15 C         146.2692  141.6763  154.7326 C.3     1  UNL1        0.0898
     16 C         145.7905  142.1097  157.2491 C.3     1  UNL1        0.1133
     17 C         144.8812  142.6137  158.3305 C.3     1  UNL1        0.1857
     18 N         142.4805  140.6393  165.3567 N.3     1  UNL1       -0.2646
     19 C         143.1403  141.9862  165.3297 C.3     1  UNL1        0.0941
     20 C         142.6316  143.0522  164.4053 C.3     1  UNL1        0.1080
     21 N         141.4630  142.7715  163.5076 N.pl3   1  UNL1       -0.3043
     22 C         140.8032  141.4247  163.5345 C.3     1  UNL1        0.1080
     23 C         141.3120  140.3586  164.4591 C.3     1  UNL1        0.0941
     24 C         142.9892  139.5733  166.2811 C.3     1  UNL1        0.1222
     25 C         139.9541  140.1917  170.5575 C.3     1  UNL1        0.0754
     26 C         141.0714  139.7696  169.6500 C.ar    1  UNL1        0.1546
     27 C         141.2034  140.1125  168.1957 C.ar    1  UNL1        0.0550
     28 C         142.4664  139.4854  167.6844 C.ar    1  UNL1        0.1165
     29 N         143.1151  138.7550  168.8227 N.ar    1  UNL1       -0.0803
     30 O         142.2529  138.9306  170.0375 O.2     1  UNL1       -0.3580
@<TRIPOS>BOND
     1    25    26    1
     2    26    27   ar
     3    27    28   ar
     4    28    24    1
     5    24    18    1
     6    18    19    1
     7    19    20    1
     8    20    21    1
     9    21     1    1
    10     1     2    2
    11     2     3    1
    12     2     4    1
    13     4     5    2
    14     5     6    1
    15     6     7    2
    16     7     8    1
    17     8    11    1
    18    11    12    1
    19    12    13    1
    20    13    14    1
    21    14    15    1
    22    14    16    1
    23    16    17    1
    24     8     9    2
    25     9    10    1
    26    21    22    1
    27    22    23    1
    28    28    29   ar
    29    29    30   ar
    30    30    26   ar
    31    23    18    1
    32    10     1    1
    33    10     6    1
    34    17    11    1
@<TRIPOS>MOLECULE
*****
 30 34 0 0 0
SMALL
GASTEIGER

@<TRIPOS>ATOM
      1 C         143.6510  140.6383  160.2900 C.2     1  UNL1        0.0875
      2 C         144.2485  142.0060  160.1398 C.2     1  UNL1        0.0944
      3 BR        144.4048  142.8920  161.3401 Br      1  UNL1       -0.0439
      4 C         144.6896  142.4876  158.7896 C.2     1  UNL1        0.2434
      5 N         144.5333  141.6015  157.5893 N.2     1  UNL1       -0.0304
      6 C         143.9359  140.2339  157.7395 C.2     1  UNL1        0.4031
      7 N         143.6583  139.1453  156.7456 N.2     1  UNL1        0.0326
      8 C         143.0457  137.9908  157.4817 C.cat   1  UNL1        0.4596
      9 N         142.9445  138.3660  158.9305 N.2     1  UNL1       -0.0725
     10 C         143.4947  139.7523  159.0898 C.3     1  UNL1        0.3273
     11 N         142.6105  136.6896  156.8754 N.pl3   1  UNL1       -0.1832
     12 C         141.4849  136.6633  155.8843 C.3     1  UNL1        0.1857
     13 C         141.0497  135.3620  155.2781 C.3     1  UNL1        0.1133
     14 N         141.7402  134.0872  155.6630 N.3     1  UNL1       -0.2660
     15 C         141.3050  132.7860  155.0567 C.3     1  UNL1        0.0898
     16 C         142.8658  134.1135  156.6541 C.3     1  UNL1        0.1133
     17 C         143.3009  135.4148  157.2603 C.3     1  UNL1        0.1857
     18 N         142.3277  139.1935  164.3411 N.3     1  UNL1       -0.2646
     19 C         143.7538  139.0168  163.9108 C.3     1  UNL1        0.0941
     20 C         144.1949  139.4983  162.5605 C.3     1  UNL1        0.1080
     21 N         143.2099  140.1567  161.6404 N.pl3   1  UNL1       -0.3043
     22 C         141.7838  140.3334  162.0706 C.3     1  UNL1        0.1080
     23 C         141.3428  139.8518  163.4210 C.3     1  UNL1        0.0941
     24 C         141.8866  138.7119  165.6914 C.3     1  UNL1        0.1222
     25 C         142.5428  142.6138  169.1879 C.3     1  UNL1        0.0754
     26 C         142.5796  141.2659  168.5309 C.ar    1  UNL1        0.1546
     27 C         142.0215  140.9279  167.1802 C.ar    1  UNL1        0.0550
     28 C         142.2780  139.4724  166.9237 C.ar    1  UNL1        0.1165
     29 N         142.9946  138.9109  168.1159 N.ar    1  UNL1       -0.0803
     30 O         143.1810  140.0193  169.1091 O.2     1  UNL1       -0.3580
@<TRIPOS>BOND
     1    25    26    1
     2    26    27   ar
     3    27    28   ar
     4    28    24    1
     5    24    18    1
     6    18    19    1
     7    19    20    1
     8    20    21    1
     9    21     1    1
    10     1     2    2
    11     2     3    1
    12     2     4    1
    13     4     5    2
    14     5     6    1
    15     6     7    2
    16     7     8    1
    17     8    11    1
    18    11    12    1
    19    12    13    1
    20    13    14    1
    21    14    15    1
    22    14    16    1
    23    16    17    1
    24     8     9    2
    25     9    10    1
    26    21    22    1
    27    22    23    1
    28    28    29   ar
    29    29    30   ar
    30    30    26   ar
    31    23    18    1
    32    10     1    1
    33    10     6    1
    34    17    11    1
@<TRIPOS>MOLECULE
*****
 30 34 0 0 0
SMALL
GASTEIGER

@<TRIPOS>ATOM
      1 C         142.3781  140.0365  160.6669 C.2     1  UNL1        0.0875
      2 C         143.0813  141.3510  160.8324 C.2     1  UNL1        0.0944
      3 BR        142.8732  142.1613  162.0775 Br      1  UNL1       -0.0439
      4 C         143.9923  141.8554  159.7529 C.2     1  UNL1        0.2434
      5 N         144.2004  141.0451  158.5077 N.2     1  UNL1       -0.0304
      6 C         143.4972  139.7305  158.3423 C.2     1  UNL1        0.4031
      7 N         143.5069  138.7196  157.2341 N.2     1  UNL1        0.0326
      8 C         142.6017  137.5905  157.6288 C.cat   1  UNL1        0.4596
      9 N         142.0326  137.9036  158.9809 N.2     1  UNL1       -0.0725
     10 C         142.5861  139.2262  159.4218 C.3     1  UNL1        0.3273
     11 N         142.3158  136.3637  156.8144 N.pl3   1  UNL1       -0.1832
     12 C         143.0808  135.0989  157.0698 C.3     1  UNL1        0.1857
     13 C         142.7948  133.8722  156.2553 C.3     1  UNL1        0.1133
     14 N         141.7439  133.9101  155.1856 N.3     1  UNL1       -0.2660
     15 C         141.4580  132.6833  154.3712 C.3     1  UNL1        0.0898
     16 C         140.9790  135.1749  154.9303 C.3     1  UNL1        0.1133
     17 C         141.2650  136.4017  155.7447 C.3     1  UNL1        0.1857
     18 N         139.6446  138.5235  163.9057 N.3     1  UNL1       -0.2646
     19 C         139.1470  139.5351  162.9160 C.3     1  UNL1        0.0941
     20 C         140.0581  140.0393  161.8365 C.3     1  UNL1        0.1080
     21 N         141.4670  139.5321  161.7465 N.pl3   1  UNL1       -0.3043
     22 C         141.9646  138.5207  162.7361 C.3     1  UNL1        0.1080
     23 C         141.0534  138.0164  163.8156 C.3     1  UNL1        0.0941
     24 C         138.7335  138.0193  164.9852 C.3     1  UNL1        0.1222
     25 C         140.0810  141.0442  169.0981 C.3     1  UNL1        0.0754
     26 C         139.3530  140.0659  168.2245 C.ar    1  UNL1        0.1546
     27 C         139.7356  139.6770  166.8272 C.ar    1  UNL1        0.0550
     28 C         138.7336  138.6756  166.3341 C.ar    1  UNL1        0.1165
     29 N         137.7318  138.4456  167.4265 N.ar    1  UNL1       -0.0803
     30 O         138.1146  139.3049  168.5949 O.2     1  UNL1       -0.3580
@<TRIPOS>BOND
     1    25    26    1
     2    26    27   ar
     3    27    28   ar
     4    28    24    1
     5    24    18    1
     6    18    19    1
     7    19    20    1
     8    20    21    1
     9    21     1    1
    10     1     2    2
    11     2     3    1
    12     2     4    1
    13     4     5    2
    14     5     6    1
    15     6     7    2
    16     7     8    1
    17     8    11    1
    18    11    12    1
    19    12    13    1
    20    13    14    1
    21    14    15    1
    22    14    16    1
    23    16    17    1
    24     8     9    2
    25     9    10    1
    26    21    22    1
    27    22    23    1
    28    28    29   ar
    29    29    30   ar
    30    30    26   ar
    31    23    18    1
    32    10     1    1
    33    10     6    1
    34    17    11    1
@<TRIPOS>MOLECULE
*****
 30 34 0 0 0
SMALL
GASTEIGER

@<TRIPOS>ATOM
      1 C         142.7502  138.8869  157.1842 C.2     1  UNL1        0.0875
      2 C         143.6999  140.0004  156.8557 C.2     1  UNL1        0.0944
      3 BR        143.4736  141.3708  157.4224 Br      1  UNL1       -0.0439
      4 C         144.8758  139.7437  155.9607 C.2     1  UNL1        0.2434
      5 N         145.1022  138.3734  155.3941 N.2     1  UNL1       -0.0304
      6 C         144.1524  137.2598  155.7226 C.2     1  UNL1        0.4031
      7 N         144.1186  135.8166  155.3152 N.2     1  UNL1        0.0326
      8 C         142.9217  135.1814  155.9585 C.cat   1  UNL1        0.4596
      9 N         142.2158  136.2320  156.7635 N.2     1  UNL1       -0.0725
     10 C         142.9764  137.5165  156.6176 C.3     1  UNL1        0.3273
     11 N         142.5040  133.7473  155.8211 N.pl3   1  UNL1       -0.1832
     12 C         141.3978  133.3753  154.8787 C.3     1  UNL1        0.1857
     13 C         140.9802  131.9411  154.7413 C.3     1  UNL1        0.1133
     14 N         141.6686  130.8790  155.5462 N.3     1  UNL1       -0.2660
     15 C         141.2509  129.4449  155.4087 C.3     1  UNL1        0.0898
     16 C         142.7748  131.2510  156.4886 C.3     1  UNL1        0.1133
     17 C         143.1924  132.6851  156.6260 C.3     1  UNL1        0.1857
     18 N         139.2222  139.6571  159.8695 N.3     1  UNL1       -0.2646
     19 C         140.4898  139.0930  160.4397 C.3     1  UNL1        0.0941
     20 C         141.6657  138.8363  159.5447 C.3     1  UNL1        0.1080
     21 N         141.5742  139.1436  158.0793 N.pl3   1  UNL1       -0.3043
     22 C         140.3066  139.7076  157.5090 C.3     1  UNL1        0.1080
     23 C         139.1307  139.9643  158.4042 C.3     1  UNL1        0.0941
     24 C         138.0463  139.9138  160.7645 C.3     1  UNL1        0.1222
     25 C         137.6190  143.5127  164.6047 C.3     1  UNL1        0.0754
     26 C         137.7274  142.8781  163.2499 C.ar    1  UNL1        0.1546
     27 C         137.8390  141.4085  162.9709 C.ar    1  UNL1        0.0550
     28 C         137.9238  141.2239  161.4848 C.ar    1  UNL1        0.1165
     29 N         137.8645  142.5794  160.8452 N.ar    1  UNL1       -0.0803
     30 O         137.7431  143.6018  161.9361 O.2     1  UNL1       -0.3580
@<TRIPOS>BOND
     1    25    26    1
     2    26    27   ar
     3    27    28   ar
     4    28    24    1
     5    24    18    1
     6    18    19    1
     7    19    20    1
     8    20    21    1
     9    21     1    1
    10     1     2    2
    11     2     3    1
    12     2     4    1
    13     4     5    2
    14     5     6    1
    15     6     7    2
    16     7     8    1
    17     8    11    1
    18    11    12    1
    19    12    13    1
    20    13    14    1
    21    14    15    1
    22    14    16    1
    23    16    17    1
    24     8     9    2
    25     9    10    1
    26    21    22    1
    27    22    23    1
    28    28    29   ar
    29    29    30   ar
    30    30    26   ar
    31    23    18    1
    32    10     1    1
    33    10     6    1
    34    17    11    1
@<TRIPOS>MOLECULE
*****
 30 34 0 0 0
SMALL
GASTEIGER

@<TRIPOS>ATOM
      1 C         142.5957  138.4783  157.9429 C.2     1  UNL1        0.0875
      2 C         143.1874  139.8136  157.6010 C.2     1  UNL1        0.0944
      3 BR        142.8322  141.0221  158.4156 Br      1  UNL1       -0.0439
      4 C         144.1341  139.9404  156.4446 C.2     1  UNL1        0.2434
      5 N         144.4893  138.7319  155.6299 N.2     1  UNL1       -0.0304
      6 C         143.8976  137.3967  155.9719 C.2     1  UNL1        0.4031
      7 N         144.0603  136.0391  155.3550 N.2     1  UNL1        0.0326
      8 C         143.2141  135.0733  156.1302 C.cat   1  UNL1        0.4596
      9 N         142.5283  135.8339  157.2262 N.2     1  UNL1       -0.0725
     10 C         142.9508  137.2699  157.1284 C.3     1  UNL1        0.3273
     11 N         143.0775  133.6047  155.8574 N.pl3   1  UNL1       -0.1832
     12 C         144.2750  132.7076  155.9634 C.3     1  UNL1        0.1857
     13 C         144.1383  131.2389  155.6905 C.3     1  UNL1        0.1133
     14 N         142.8042  130.6674  155.3116 N.3     1  UNL1       -0.2660
     15 C         142.6676  129.1987  155.0388 C.3     1  UNL1        0.0898
     16 C         141.6067  131.5645  155.2056 C.3     1  UNL1        0.1133
     17 C         141.7434  133.0331  155.4785 C.3     1  UNL1        0.1857
     18 N         139.7552  138.0979  161.4124 N.3     1  UNL1       -0.2646
     19 C         139.2287  138.4091  160.0426 C.3     1  UNL1        0.0941
     20 C         140.1755  138.5359  158.8862 C.3     1  UNL1        0.1080
     21 N         141.6489  138.3515  159.0994 N.pl3   1  UNL1       -0.3043
     22 C         142.1753  138.0404  160.4691 C.3     1  UNL1        0.1080
     23 C         141.2284  137.9136  161.6256 C.3     1  UNL1        0.0941
     24 C         138.8084  137.9712  162.5688 C.3     1  UNL1        0.1222
     25 C         137.7655  142.8218  164.3759 C.3     1  UNL1        0.0754
     26 C         138.1121  141.3633  164.3222 C.ar    1  UNL1        0.1546
     27 C         138.2285  140.5299  163.0804 C.ar    1  UNL1        0.0550
     28 C         138.5914  139.1338  163.4915 C.ar    1  UNL1        0.1165
     29 N         138.6993  139.1043  164.9874 N.ar    1  UNL1       -0.0803
     30 O         138.4030  140.4822  165.5007 O.2     1  UNL1       -0.3580
@<TRIPOS>BOND
     1    25    26    1
     2    26    27   ar
     3    27    28   ar
     4    28    24    1
     5    24    18    1
     6    18    19    1
     7    19    20    1
     8    20    21    1
     9    21     1    1
    10     1     2    2
    11     2     3    1
    12     2     4    1
    13     4     5    2
    14     5     6    1
    15     6     7    2
    16     7     8    1
    17     8    11    1
    18    11    12    1
    19    12    13    1
    20    13    14    1
    21    14    15    1
    22    14    16    1
    23    16    17    1
    24     8     9    2
    25     9    10    1
    26    21    22    1
    27    22    23    1
    28    28    29   ar
    29    29    30   ar
    30    30    26   ar
    31    23    18    1
    32    10     1    1
    33    10     6    1
    34    17    11    1
@<TRIPOS>MOLECULE
*****
 30 34 0 0 0
SMALL
GASTEIGER

@<TRIPOS>ATOM
      1 C         143.1607  140.0036  159.4477 C.2     1  UNL1        0.0875
      2 C         143.4220  141.4254  159.0473 C.2     1  UNL1        0.0944
      3 BR        143.5116  142.4952  160.0950 Br      1  UNL1       -0.0439
      4 C         143.5936  141.7773  157.5994 C.2     1  UNL1        0.2434
      5 N         143.5040  140.7074  156.5517 N.2     1  UNL1       -0.0304
      6 C         143.2427  139.2857  156.9522 C.2     1  UNL1        0.4031
      7 N         143.1031  138.0263  156.1494 N.2     1  UNL1        0.0326
      8 C         142.8452  136.8961  157.1012 C.cat   1  UNL1        0.4596
      9 N         142.8254  137.4569  158.4923 N.2     1  UNL1       -0.0725
     10 C         143.0711  138.9338  158.4002 C.3     1  UNL1        0.3273
     11 N         142.6426  135.4576  156.7276 N.pl3   1  UNL1       -0.1832
     12 C         141.6585  135.0924  155.6561 C.3     1  UNL1        0.1857
     13 C         141.4560  133.6538  155.2825 C.3     1  UNL1        0.1133
     14 N         142.2375  132.5804  155.9804 N.3     1  UNL1       -0.2660
     15 C         142.0349  131.1419  155.6068 C.3     1  UNL1        0.0898
     16 C         143.2216  132.9456  157.0520 C.3     1  UNL1        0.1133
     17 C         143.4241  134.3842  157.4255 C.3     1  UNL1        0.1857
     18 N         142.6458  138.9479  163.7918 N.3     1  UNL1       -0.2646
     19 C         141.4465  139.2749  162.9521 C.3     1  UNL1        0.0941
     20 C         141.6182  139.6268  161.5042 C.3     1  UNL1        0.1080
     21 N         142.9891  139.6517  160.8958 N.pl3   1  UNL1       -0.3043
     22 C         144.1883  139.3248  161.7354 C.3     1  UNL1        0.1080
     23 C         144.0166  138.9729  163.1834 C.3     1  UNL1        0.0941
     24 C         142.4741  138.5960  165.2397 C.3     1  UNL1        0.1222
     25 C         142.9163  140.9960  169.9223 C.3     1  UNL1        0.0754
     26 C         142.8260  140.7582  168.4440 C.ar    1  UNL1        0.1546
     27 C         142.6688  139.4256  167.7733 C.ar    1  UNL1        0.0550
     28 C         142.6228  139.6550  166.2917 C.ar    1  UNL1        0.1165
     29 N         142.7515  141.1293  166.0466 N.ar    1  UNL1       -0.0803
     30 O         142.8771  141.8110  167.3768 O.2     1  UNL1       -0.3580
@<TRIPOS>BOND
     1    25    26    1
     2    26    27   ar
     3    27    28   ar
     4    28    24    1
     5    24    18    1
     6    18    19    1
     7    19    20    1
     8    20    21    1
     9    21     1    1
    10     1     2    2
    11     2     3    1
    12     2     4    1
    13     4     5    2
    14     5     6    1
    15     6     7    2
    16     7     8    1
    17     8    11    1
    18    11    12    1
    19    12    13    1
    20    13    14    1
    21    14    15    1
    22    14    16    1
    23    16    17    1
    24     8     9    2
    25     9    10    1
    26    21    22    1
    27    22    23    1
    28    28    29   ar
    29    29    30   ar
    30    30    26   ar
    31    23    18    1
    32    10     1    1
    33    10     6    1
    34    17    11    1
@<TRIPOS>MOLECULE
*****
 30 34 0 0 0
SMALL
GASTEIGER

@<TRIPOS>ATOM
      1 C         142.8980  141.5543  162.6902 C.2     1  UNL1        0.0875
      2 C         143.8685  142.6368  163.0594 C.2     1  UNL1        0.0944
      3 BR        143.8592  143.2118  164.4449 Br      1  UNL1       -0.0439
      4 C         144.8482  143.1443  162.0434 C.2     1  UNL1        0.2434
      5 N         144.8575  142.5694  160.6579 N.2     1  UNL1       -0.0304
      6 C         143.8870  141.4869  160.2886 C.2     1  UNL1        0.4031
      7 N         143.6620  140.7336  159.0111 N.2     1  UNL1        0.0326
      8 C         142.5432  139.7606  159.2378 C.cat   1  UNL1        0.4596
      9 N         142.0768  139.9124  160.6553 N.2     1  UNL1       -0.0725
     10 C         142.9073  140.9794  161.3048 C.3     1  UNL1        0.3273
     11 N         141.9883  138.8036  158.2247 N.pl3   1  UNL1       -0.1832
     12 C         142.8949  137.8189  157.5477 C.3     1  UNL1        0.1857
     13 C         142.3398  136.8620  156.5347 C.3     1  UNL1        0.1133
     14 N         140.8783  136.8897  156.1986 N.3     1  UNL1       -0.2660
     15 C         140.3233  135.9328  155.1856 C.3     1  UNL1        0.0898
     16 C         139.9716  137.8744  156.8756 C.3     1  UNL1        0.1133
     17 C         140.5267  138.8314  157.8887 C.3     1  UNL1        0.1857
     18 N         139.9589  140.0316  165.7386 N.3     1  UNL1       -0.2646
     19 C         141.2886  139.3566  165.5762 C.3     1  UNL1        0.0941
     20 C         142.2682  139.8641  164.5601 C.3     1  UNL1        0.1080
     21 N         141.9183  141.0468  163.7063 N.pl3   1  UNL1       -0.3043
     22 C         140.5887  141.7219  163.8687 C.3     1  UNL1        0.1080
     23 C         139.6090  141.2143  164.8849 C.3     1  UNL1        0.0941
     24 C         138.9792  139.5241  166.7547 C.3     1  UNL1        0.1222
     25 C         140.9684  141.4398  171.2553 C.3     1  UNL1        0.0754
     26 C         140.0697  140.7493  170.2726 C.ar    1  UNL1        0.1546
     27 C         140.2998  140.6380  168.7945 C.ar    1  UNL1        0.0550
     28 C         139.1554  139.8688  168.2040 C.ar    1  UNL1        0.1165
     29 N         138.2181  139.5047  169.3171 N.ar    1  UNL1       -0.0803
     30 O         138.7832  140.0489  170.5956 O.2     1  UNL1       -0.3580
@<TRIPOS>BOND
     1    25    26    1
     2    26    27   ar
     3    27    28   ar
     4    28    24    1
     5    24    18    1
     6    18    19    1
     7    19    20    1
     8    20    21    1
     9    21     1    1
    10     1     2    2
    11     2     3    1
    12     2     4    1
    13     4     5    2
    14     5     6    1
    15     6     7    2
    16     7     8    1
    17     8    11    1
    18    11    12    1
    19    12    13    1
    20    13    14    1
    21    14    15    1
    22    14    16    1
    23    16    17    1
    24     8     9    2
    25     9    10    1
    26    21    22    1
    27    22    23    1
    28    28    29   ar
    29    29    30   ar
    30    30    26   ar
    31    23    18    1
    32    10     1    1
    33    10     6    1
    34    17    11    1
@<TRIPOS>MOLECULE
*****
 30 34 0 0 0
SMALL
GASTEIGER

@<TRIPOS>ATOM
      1 C         139.6984  143.1477  160.9835 C.2     1  UNL1        0.0875
      2 C         140.3078  144.4388  161.4438 C.2     1  UNL1        0.0944
      3 BR        140.6355  144.6384  162.8940 Br      1  UNL1       -0.0439
      4 C         140.5894  145.5301  160.4541 C.2     1  UNL1        0.2434
      5 N         140.2616  145.3305  159.0040 N.2     1  UNL1       -0.0304
      6 C         139.6523  144.0394  158.5437 C.2     1  UNL1        0.4031
      7 N         139.2248  143.5581  157.1888 N.2     1  UNL1        0.0326
      8 C         138.6790  142.1693  157.3413 C.cat   1  UNL1        0.4596
      9 N         138.7691  141.7922  158.7903 N.2     1  UNL1       -0.0725
     10 C         139.3707  142.9480  159.5335 C.3     1  UNL1        0.3273
     11 N         138.1379  141.3086  156.2383 N.pl3   1  UNL1       -0.1832
     12 C         136.6771  140.9703  156.1989 C.3     1  UNL1        0.1857
     13 C         136.1362  140.1096  155.0959 C.3     1  UNL1        0.1133
     14 N         137.0559  139.5872  154.0324 N.3     1  UNL1       -0.2660
     15 C         136.5149  138.7265  152.9294 C.3     1  UNL1        0.0898
     16 C         138.5168  139.9255  154.0718 C.3     1  UNL1        0.1133
     17 C         139.0577  140.7862  155.1748 C.3     1  UNL1        0.1857
     18 N         138.8536  139.8737  163.9529 N.3     1  UNL1       -0.2646
     19 C         137.7754  140.8500  163.5859 C.3     1  UNL1        0.0941
     20 C         138.0570  141.9413  162.5962 C.3     1  UNL1        0.1080
     21 N         139.4168  142.0564  161.9733 N.pl3   1  UNL1       -0.3043
     22 C         140.4949  141.0802  162.3403 C.3     1  UNL1        0.1080
     23 C         140.2133  139.9888  163.3301 C.3     1  UNL1        0.0941
     24 C         138.5719  138.7824  164.9426 C.3     1  UNL1        0.1222
     25 C         139.7724  140.7865  169.6781 C.3     1  UNL1        0.0754
     26 C         139.0949  140.0113  168.5871 C.ar    1  UNL1        0.1546
     27 C         139.4908  139.9953  167.1403 C.ar    1  UNL1        0.0550
     28 C         138.5432  139.0902  166.4105 C.ar    1  UNL1        0.1165
     29 N         137.5616  138.5467  167.4062 N.ar    1  UNL1       -0.0803
     30 O         137.9026  139.1160  168.7514 O.2     1  UNL1       -0.3580
@<TRIPOS>BOND
     1    25    26    1
     2    26    27   ar
     3    27    28   ar
     4    28    24    1
     5    24    18    1
     6    18    19    1
     7    19    20    1
     8    20    21    1
     9    21     1    1
    10     1     2    2
    11     2     3    1
    12     2     4    1
    13     4     5    2
    14     5     6    1
    15     6     7    2
    16     7     8    1
    17     8    11    1
    18    11    12    1
    19    12    13    1
    20    13    14    1
    21    14    15    1
    22    14    16    1
    23    16    17    1
    24     8     9    2
    25     9    10    1
    26    21    22    1
    27    22    23    1
    28    28    29   ar
    29    29    30   ar
    30    30    26   ar
    31    23    18    1
    32    10     1    1
    33    10     6    1
    34    17    11    1
@<TRIPOS>MOLECULE
*****
 30 34 0 0 0
SMALL
GASTEIGER

@<TRIPOS>ATOM
      1 C         139.3310  140.3424  162.2534 C.2     1  UNL1        0.0875
      2 C         138.6002  139.0688  162.5599 C.2     1  UNL1        0.0944
      3 BR        138.8186  138.3760  163.8723 Br      1  UNL1       -0.0439
      4 C         137.6510  138.4882  161.5541 C.2     1  UNL1        0.2434
      5 N         137.4326  139.1811  160.2416 N.2     1  UNL1       -0.0304
      6 C         138.1634  140.4546  159.9352 C.2     1  UNL1        0.4031
      7 N         138.1515  141.3549  158.7355 N.2     1  UNL1        0.0326
      8 C         139.0934  142.4920  159.0000 C.cat   1  UNL1        0.4596
      9 N         139.6874  142.2944  160.3631 N.2     1  UNL1       -0.0725
     10 C         139.1127  141.0353  160.9411 C.3     1  UNL1        0.3273
     11 N         139.3893  143.6273  158.0654 N.pl3   1  UNL1       -0.1832
     12 C         140.2277  144.7814  158.5291 C.3     1  UNL1        0.1857
     13 C         140.5235  145.9168  157.5944 C.3     1  UNL1        0.1133
     14 N         139.9810  145.8980  156.1961 N.3     1  UNL1       -0.2660
     15 C         140.2769  147.0333  155.2615 C.3     1  UNL1        0.0898
     16 C         139.1426  144.7438  155.7323 C.3     1  UNL1        0.1133
     17 C         138.8468  143.6085  156.6670 C.3     1  UNL1        0.1857
     18 N         142.1788  142.0843  165.2711 N.3     1  UNL1       -0.2646
     19 C         142.6614  141.0574  164.2899 C.3     1  UNL1        0.0941
     20 C         141.7122  140.4768  163.2841 C.3     1  UNL1        0.1080
     21 N         140.2802  140.9230  163.2593 N.pl3   1  UNL1       -0.3043
     22 C         139.7976  141.9499  164.2405 C.3     1  UNL1        0.1080
     23 C         140.7469  142.5305  165.2463 C.3     1  UNL1        0.0941
     24 C         143.1280  142.6649  166.2770 C.3     1  UNL1        0.1222
     25 C         142.5324  139.4330  170.4100 C.3     1  UNL1        0.0754
     26 C         142.9219  140.6072  169.5617 C.ar    1  UNL1        0.1546
     27 C         142.6240  140.7773  168.1014 C.ar    1  UNL1        0.0550
     28 C         143.1956  142.0927  167.6620 C.ar    1  UNL1        0.1165
     29 N         143.8468  142.7354  168.8506 N.ar    1  UNL1       -0.0803
     30 O         143.6776  141.8174  170.0247 O.2     1  UNL1       -0.3580
@<TRIPOS>BOND
     1    25    26    1
     2    26    27   ar
     3    27    28   ar
     4    28    24    1
     5    24    18    1
     6    18    19    1
     7    19    20    1
     8    20    21    1
     9    21     1    1
    10     1     2    2
    11     2     3    1
    12     2     4    1
    13     4     5    2
    14     5     6    1
    15     6     7    2
    16     7     8    1
    17     8    11    1
    18    11    12    1
    19    12    13    1
    20    13    14    1
    21    14    15    1
    22    14    16    1
    23    16    17    1
    24     8     9    2
    25     9    10    1
    26    21    22    1
    27    22    23    1
    28    28    29   ar
    29    29    30   ar
    30    30    26   ar
    31    23    18    1
    32    10     1    1
    33    10     6    1
    34    17    11    1
