@<TRIPOS>MOLECULE
*****
 37 41 0 0 0
SMALL
GASTEIGER

@<TRIPOS>ATOM
      1 C         137.7250  141.2220  161.6650 C.3     1  UNL1        0.2588
      2 O         138.0434  141.9826  159.2012 O.2     1  UNL1       -0.2708
      3 C         138.4645  142.0300  160.6400 C.2     1  UNL1        0.2689
      4 N         139.6252  142.8853  161.0540 N.am    1  UNL1       -0.2664
      5 H         139.9015  142.9164  161.9984 H       1  UNL1        0.1564
      6 C         140.3646  143.6932  160.0292 C.ar    1  UNL1        0.1344
      7 C         141.6946  143.2222  159.5198 C.ar    1  UNL1        0.0368
      8 C         142.4340  144.0302  158.4949 C.ar    1  UNL1        0.0341
      9 C         141.8436  145.3092  157.9795 C.ar    1  UNL1        0.1593
     10 F         142.5831  146.1171  156.9546 F       1  UNL1       -0.2025
     11 C         140.5137  145.7802  158.4889 C.ar    1  UNL1        0.1298
     12 N         139.7742  144.9721  159.5138 N.ar    1  UNL1       -0.2267
     13 C         137.6018  139.7360  161.5023 C.3     1  UNL1        0.1261
     14 N         138.6990  138.8350  161.9861 N.3     1  UNL1       -0.2650
     15 C         138.7620  137.6081  162.8470 C.3     1  UNL1        0.1033
     16 C         140.2508  137.5607  162.6704 C.3     1  UNL1        0.1423
     17 O         141.3481  136.6596  163.1542 O.3     1  UNL1       -0.3816
     18 C         140.1878  138.7874  161.8096 C.3     1  UNL1        0.1033
     19 H         140.9699  135.9570  163.7057 H       1  UNL1        0.2105
     20 O         137.1088  141.9002  162.8526 O.3     1  UNL1       -0.4529
     21 C         137.9834  142.5651  163.8740 C.ar    1  UNL1        0.2312
     22 N         138.1865  144.0507  163.8344 N.ar    1  UNL1       -0.1892
     23 C         139.0610  144.7155  164.8558 C.ar    1  UNL1        0.2029
     24 N         139.7324  143.8947  165.9167 N.ar    1  UNL1       -0.2046
     25 C         139.5293  142.4091  165.9562 C.ar    1  UNL1        0.1716
     26 C         138.6548  141.7443  164.9348 C.ar    1  UNL1        0.1098
     27 C         138.6417  140.2723  165.2234 C.ar    1  UNL1        0.1283
     28 N         139.5081  140.0274  166.4231 N.ar    1  UNL1       -0.1619
     29 N         140.0567  141.3481  166.8760 N.ar    1  UNL1       -0.2089
     30 C         140.9719  141.5689  168.0437 C.ar    1  UNL1        0.1222
     31 C         142.3537  142.1089  167.8220 C.ar    1  UNL1        0.1585
     32 F         142.8202  142.4282  166.4326 F       1  UNL1       -0.2026
     33 C         143.2689  142.3298  168.9897 C.ar    1  UNL1        0.0313
     34 C         142.8025  142.0105  170.3792 C.ar    1  UNL1        0.0033
     35 C         141.4208  141.4705  170.6008 C.ar    1  UNL1        0.0131
     36 C         140.5055  141.2497  169.4331 C.ar    1  UNL1        0.0776
     37 CL        139.1238  140.7096  169.6549 Cl      1  UNL1       -0.0806
@<TRIPOS>BOND
     1     2     3    2
     2     3     4   am
     3     4     6    1
     4     6     7   ar
     5     7     8   ar
     6     8     9   ar
     7     9    10    1
     8     9    11   ar
     9    11    12   ar
    10     3     1    1
    11     1    13    1
    12    13    14    1
    13    14    15    1
    14    15    16    1
    15    16    17    1
    16    16    18    1
    17     1    20    1
    18    20    21    1
    19    21    22   ar
    20    22    23   ar
    21    23    24   ar
    22    24    25   ar
    23    25    26   ar
    24    26    27   ar
    25    27    28   ar
    26    28    29   ar
    27    29    30    1
    28    30    31   ar
    29    31    32    1
    30    31    33   ar
    31    33    34   ar
    32    34    35   ar
    33    35    36   ar
    34    36    37    1
    35    12     6   ar
    36    18    14    1
    37    26    21   ar
    38    36    30   ar
    39    29    25   ar
    40     4     5    1
    41    17    19    1
@<TRIPOS>MOLECULE
*****
 37 41 0 0 0
SMALL
GASTEIGER

@<TRIPOS>ATOM
      1 C         142.3299  139.5162  167.1659 C.3     1  UNL1        0.2588
      2 O         139.8349  139.7365  166.4756 O.2     1  UNL1       -0.2708
      3 C         141.2315  140.2835  166.4914 C.2     1  UNL1        0.2689
      4 N         141.5298  141.5977  165.8328 N.am    1  UNL1       -0.2664
      5 H         142.4465  141.9567  165.8432 H       1  UNL1        0.1564
      6 C         140.4315  142.3650  165.1583 C.ar    1  UNL1        0.1344
      7 C         139.8379  143.5693  165.8270 C.ar    1  UNL1        0.0368
      8 C         138.7396  144.3366  165.1525 C.ar    1  UNL1        0.0341
      9 C         138.2349  143.8996  163.8092 C.ar    1  UNL1        0.1593
     10 F         137.1366  144.6669  163.1347 F       1  UNL1       -0.2025
     11 C         138.8285  142.6953  163.1405 C.ar    1  UNL1        0.1298
     12 N         139.9269  141.9279  163.8151 N.ar    1  UNL1       -0.2267
     13 C         142.4663  139.5578  168.6591 C.3     1  UNL1        0.1261
     14 N         142.6490  140.8718  169.3592 N.3     1  UNL1       -0.2650
     15 C         143.3589  142.1541  169.0399 C.3     1  UNL1        0.1033
     16 C         142.9073  142.7300  170.3492 C.3     1  UNL1        0.1423
     17 O         143.0899  144.0440  171.0493 O.3     1  UNL1       -0.3816
     18 C         142.1974  141.4479  170.6685 C.3     1  UNL1        0.1033
     19 H         143.6300  144.6317  170.4981 H       1  UNL1        0.2105
     20 O         143.2918  138.7072  166.3472 O.3     1  UNL1       -0.4529
     21 C         143.5814  139.0972  164.9280 C.ar    1  UNL1        0.2312
     22 N         144.7239  140.0196  164.6219 N.ar    1  UNL1       -0.1892
     23 C         145.0135  140.4096  163.2027 C.ar    1  UNL1        0.2029
     24 N         144.1604  139.8772  162.0897 N.ar    1  UNL1       -0.2046
     25 C         143.0178  138.9548  162.3958 C.ar    1  UNL1        0.1716
     26 C         142.7283  138.5648  163.8149 C.ar    1  UNL1        0.1098
     27 C         141.5430  137.6455  163.8105 C.ar    1  UNL1        0.1283
     28 N         141.1000  137.4673  162.3885 N.ar    1  UNL1       -0.1619
     29 N         142.0115  138.2765  161.5142 N.ar    1  UNL1       -0.2089
     30 C         141.9309  138.3879  160.0205 C.ar    1  UNL1        0.1222
     31 C         142.6598  137.4037  159.1546 C.ar    1  UNL1        0.1585
     32 F         143.4694  136.3080  159.7823 F       1  UNL1       -0.2026
     33 C         142.5791  137.5151  157.6609 C.ar    1  UNL1        0.0313
     34 C         141.7695  138.6107  157.0331 C.ar    1  UNL1        0.0033
     35 C         141.0406  139.5949  157.8991 C.ar    1  UNL1        0.0131
     36 C         141.1212  139.4835  159.3927 C.ar    1  UNL1        0.0776
     37 CL        140.3923  140.4678  160.2586 Cl      1  UNL1       -0.0806
@<TRIPOS>BOND
     1     2     3    2
     2     3     4   am
     3     4     6    1
     4     6     7   ar
     5     7     8   ar
     6     8     9   ar
     7     9    10    1
     8     9    11   ar
     9    11    12   ar
    10     3     1    1
    11     1    13    1
    12    13    14    1
    13    14    15    1
    14    15    16    1
    15    16    17    1
    16    16    18    1
    17     1    20    1
    18    20    21    1
    19    21    22   ar
    20    22    23   ar
    21    23    24   ar
    22    24    25   ar
    23    25    26   ar
    24    26    27   ar
    25    27    28   ar
    26    28    29   ar
    27    29    30    1
    28    30    31   ar
    29    31    32    1
    30    31    33   ar
    31    33    34   ar
    32    34    35   ar
    33    35    36   ar
    34    36    37    1
    35    12     6   ar
    36    18    14    1
    37    26    21   ar
    38    36    30   ar
    39    29    25   ar
    40     4     5    1
    41    17    19    1
@<TRIPOS>MOLECULE
*****
 37 41 0 0 0
SMALL
GASTEIGER

@<TRIPOS>ATOM
      1 C         144.3823  140.7086  164.2807 C.3     1  UNL1        0.2588
      2 O         143.4522  142.1133  166.2585 O.2     1  UNL1       -0.2708
      3 C         143.6172  140.7918  165.5682 C.2     1  UNL1        0.2689
      4 N         143.0171  139.5536  166.1655 N.am    1  UNL1       -0.2664
      5 H         143.1254  138.6863  165.7124 H       1  UNL1        0.1564
      6 C         142.2520  139.6368  167.4530 C.ar    1  UNL1        0.1344
      7 C         140.8099  140.0494  167.4431 C.ar    1  UNL1        0.0368
      8 C         140.0448  140.1326  168.7306 C.ar    1  UNL1        0.0341
      9 C         140.7219  139.8033  170.0281 C.ar    1  UNL1        0.1593
     10 F         139.9568  139.8865  171.3155 F       1  UNL1       -0.2025
     11 C         142.1640  139.3907  170.0379 C.ar    1  UNL1        0.1298
     12 N         142.9291  139.3075  168.7503 N.ar    1  UNL1       -0.2267
     13 C         144.9777  141.9476  163.6806 C.3     1  UNL1        0.1261
     14 N         144.1047  142.9154  162.9380 N.3     1  UNL1       -0.2650
     15 C         143.0984  142.8026  161.8314 C.3     1  UNL1        0.1033
     16 C         142.8702  144.2841  161.8879 C.3     1  UNL1        0.1423
     17 O         141.9973  145.2519  161.1454 O.3     1  UNL1       -0.3816
     18 C         143.8765  144.3969  162.9945 C.3     1  UNL1        0.1033
     19 H         141.4737  144.7732  160.4839 H       1  UNL1        0.2105
     20 O         144.5519  139.3862  163.5932 O.3     1  UNL1       -0.4529
     21 C         143.4115  138.7898  162.8226 C.ar    1  UNL1        0.2312
     22 N         142.3147  138.0661  163.5460 N.ar    1  UNL1       -0.1892
     23 C         141.1744  137.4697  162.7754 C.ar    1  UNL1        0.2029
     24 N         141.1308  137.5970  161.2814 N.ar    1  UNL1       -0.2046
     25 C         142.2276  138.3207  160.5581 C.ar    1  UNL1        0.1716
     26 C         143.3679  138.9171  161.3287 C.ar    1  UNL1        0.1098
     27 C         144.2987  139.5687  160.3493 C.ar    1  UNL1        0.1283
     28 N         143.7336  139.3750  158.9734 N.ar    1  UNL1       -0.1619
     29 N         142.4536  138.6037  159.1025 N.ar    1  UNL1       -0.2089
     30 C         141.5569  138.1883  157.9740 C.ar    1  UNL1        0.1222
     31 C         141.9076  136.9930  157.1383 C.ar    1  UNL1        0.1585
     32 F         143.1551  136.2131  157.4311 F       1  UNL1       -0.2026
     33 C         141.0110  136.5776  156.0098 C.ar    1  UNL1        0.0313
     34 C         139.7636  137.3575  155.7170 C.ar    1  UNL1        0.0033
     35 C         139.4129  138.5527  156.5527 C.ar    1  UNL1        0.0131
     36 C         140.3095  138.9681  157.6811 C.ar    1  UNL1        0.0776
     37 CL        139.9587  140.1634  158.5168 Cl      1  UNL1       -0.0806
@<TRIPOS>BOND
     1     2     3    2
     2     3     4   am
     3     4     6    1
     4     6     7   ar
     5     7     8   ar
     6     8     9   ar
     7     9    10    1
     8     9    11   ar
     9    11    12   ar
    10     3     1    1
    11     1    13    1
    12    13    14    1
    13    14    15    1
    14    15    16    1
    15    16    17    1
    16    16    18    1
    17     1    20    1
    18    20    21    1
    19    21    22   ar
    20    22    23   ar
    21    23    24   ar
    22    24    25   ar
    23    25    26   ar
    24    26    27   ar
    25    27    28   ar
    26    28    29   ar
    27    29    30    1
    28    30    31   ar
    29    31    32    1
    30    31    33   ar
    31    33    34   ar
    32    34    35   ar
    33    35    36   ar
    34    36    37    1
    35    12     6   ar
    36    18    14    1
    37    26    21   ar
    38    36    30   ar
    39    29    25   ar
    40     4     5    1
    41    17    19    1
@<TRIPOS>MOLECULE
*****
 37 41 0 0 0
SMALL
GASTEIGER

@<TRIPOS>ATOM
      1 C         143.9316  143.2594  161.6615 C.3     1  UNL1        0.2588
      2 O         143.8427  142.7996  159.1060 O.2     1  UNL1       -0.2708
      3 C         143.3185  143.5139  160.3163 C.2     1  UNL1        0.2689
      4 N         142.1813  144.4827  160.1816 N.am    1  UNL1       -0.2664
      5 H         141.8373  144.9515  160.9760 H       1  UNL1        0.1564
      6 C         141.5682  144.7372  158.8365 C.ar    1  UNL1        0.1344
      7 C         140.2975  144.0414  158.4476 C.ar    1  UNL1        0.0368
      8 C         139.6845  144.2959  157.1025 C.ar    1  UNL1        0.0341
      9 C         140.3421  145.2462  156.1462 C.ar    1  UNL1        0.1593
     10 F         139.7290  145.5007  154.8011 F       1  UNL1       -0.2025
     11 C         141.6128  145.9420  156.5351 C.ar    1  UNL1        0.1298
     12 N         142.2259  145.6875  157.8802 N.ar    1  UNL1       -0.2267
     13 C         144.8245  142.0717  161.8662 C.3     1  UNL1        0.1261
     14 N         144.2489  140.6868  161.8371 N.3     1  UNL1       -0.2650
     15 C         144.0168  139.6569  160.7715 C.3     1  UNL1        0.1033
     16 C         143.4350  138.7283  161.7958 C.3     1  UNL1        0.1423
     17 O         142.8594  137.3434  161.7666 O.3     1  UNL1       -0.3816
     18 C         143.6670  139.7582  162.8613 C.3     1  UNL1        0.1033
     19 H         142.8862  137.0012  160.8593 H       1  UNL1        0.2105
     20 O         143.6517  144.1928  162.8020 O.3     1  UNL1       -0.4529
     21 C         142.4279  143.9982  163.6473 C.ar    1  UNL1        0.2312
     22 N         141.1425  144.6744  163.2728 N.ar    1  UNL1       -0.1892
     23 C         139.9188  144.4798  164.1182 C.ar    1  UNL1        0.2029
     24 N         139.9806  143.6091  165.3380 N.ar    1  UNL1       -0.2046
     25 C         141.2660  142.9329  165.7125 C.ar    1  UNL1        0.1716
     26 C         142.4897  143.1275  164.8672 C.ar    1  UNL1        0.1098
     27 C         143.6078  142.3382  165.4814 C.ar    1  UNL1        0.1283
     28 N         143.0750  141.6558  166.7063 N.ar    1  UNL1       -0.1619
     29 N         141.6277  142.0234  166.8492 N.ar    1  UNL1       -0.2089
     30 C         140.7042  141.5624  167.9376 C.ar    1  UNL1        0.1222
     31 C         140.6118  142.3349  169.2200 C.ar    1  UNL1        0.1585
     32 F         141.4428  143.5685  169.4140 F       1  UNL1       -0.2026
     33 C         139.6883  141.8739  170.3084 C.ar    1  UNL1        0.0313
     34 C         138.8573  140.6403  170.1144 C.ar    1  UNL1        0.0033
     35 C         138.9497  139.8678  168.8320 C.ar    1  UNL1        0.0131
     36 C         139.8732  140.3288  167.7436 C.ar    1  UNL1        0.0776
     37 CL        139.9656  139.5562  166.4612 Cl      1  UNL1       -0.0806
@<TRIPOS>BOND
     1     2     3    2
     2     3     4   am
     3     4     6    1
     4     6     7   ar
     5     7     8   ar
     6     8     9   ar
     7     9    10    1
     8     9    11   ar
     9    11    12   ar
    10     3     1    1
    11     1    13    1
    12    13    14    1
    13    14    15    1
    14    15    16    1
    15    16    17    1
    16    16    18    1
    17     1    20    1
    18    20    21    1
    19    21    22   ar
    20    22    23   ar
    21    23    24   ar
    22    24    25   ar
    23    25    26   ar
    24    26    27   ar
    25    27    28   ar
    26    28    29   ar
    27    29    30    1
    28    30    31   ar
    29    31    32    1
    30    31    33   ar
    31    33    34   ar
    32    34    35   ar
    33    35    36   ar
    34    36    37    1
    35    12     6   ar
    36    18    14    1
    37    26    21   ar
    38    36    30   ar
    39    29    25   ar
    40     4     5    1
    41    17    19    1
@<TRIPOS>MOLECULE
*****
 37 41 0 0 0
SMALL
GASTEIGER

@<TRIPOS>ATOM
      1 C         139.0354  138.4764  162.6214 C.3     1  UNL1        0.2588
      2 O         138.9592  137.4246  164.9959 O.2     1  UNL1       -0.2708
      3 C         139.3558  138.5485  164.0851 C.2     1  UNL1        0.2689
      4 N         140.0728  139.7444  164.6379 N.am    1  UNL1       -0.2664
      5 H         140.3331  140.4820  164.0401 H       1  UNL1        0.1564
      6 C         140.3932  139.8165  166.1015 C.ar    1  UNL1        0.1344
      7 C         139.3027  140.0858  167.0956 C.ar    1  UNL1        0.0368
      8 C         139.6231  140.1578  168.5592 C.ar    1  UNL1        0.0341
      9 C         141.0341  139.9606  169.0287 C.ar    1  UNL1        0.1593
     10 F         141.3545  140.0327  170.4922 F       1  UNL1       -0.2025
     11 C         142.1246  139.6914  168.0345 C.ar    1  UNL1        0.1298
     12 N         141.8041  139.6193  166.5709 N.ar    1  UNL1       -0.2267
     13 C         137.8632  139.2341  162.0721 C.3     1  UNL1        0.1261
     14 N         137.8113  140.7281  162.1954 N.3     1  UNL1       -0.2650
     15 C         138.2131  141.8791  161.3213 C.3     1  UNL1        0.1033
     16 C         137.7380  142.8410  162.3697 C.3     1  UNL1        0.1423
     17 O         137.6862  144.3350  162.4930 O.3     1  UNL1       -0.3816
     18 C         137.3364  141.6901  163.2437 C.3     1  UNL1        0.1033
     19 H         138.0530  144.7385  161.6908 H       1  UNL1        0.2105
     20 O         139.8872  137.6467  161.7072 O.3     1  UNL1       -0.4529
     21 C         141.2759  138.0969  161.3620 C.ar    1  UNL1        0.2312
     22 N         142.4200  137.7659  162.2737 N.ar    1  UNL1       -0.1892
     23 C         143.8086  138.2161  161.9285 C.ar    1  UNL1        0.2029
     24 N         144.0530  138.9973  160.6715 N.ar    1  UNL1       -0.2046
     25 C         142.9088  139.3283  159.7598 C.ar    1  UNL1        0.1716
     26 C         141.5203  138.8781  160.1050 C.ar    1  UNL1        0.1098
     27 C         140.5970  139.3498  159.0209 C.ar    1  UNL1        0.1283
     28 N         141.4151  140.0915  158.0056 N.ar    1  UNL1       -0.1619
     29 N         142.8438  140.0782  158.4623 N.ar    1  UNL1       -0.2089
     30 C         144.0039  140.7048  157.7471 C.ar    1  UNL1        0.1222
     31 C         144.5603  140.0606  156.5121 C.ar    1  UNL1        0.1585
     32 F         143.9565  138.7896  155.9922 F       1  UNL1       -0.2026
     33 C         145.7203  140.6872  155.7968 C.ar    1  UNL1        0.0313
     34 C         146.3241  141.9581  156.3167 C.ar    1  UNL1        0.0033
     35 C         145.7678  142.6023  157.5517 C.ar    1  UNL1        0.0131
     36 C         144.6077  141.9757  158.2669 C.ar    1  UNL1        0.0776
     37 CL        144.0514  142.6201  159.5019 Cl      1  UNL1       -0.0806
@<TRIPOS>BOND
     1     2     3    2
     2     3     4   am
     3     4     6    1
     4     6     7   ar
     5     7     8   ar
     6     8     9   ar
     7     9    10    1
     8     9    11   ar
     9    11    12   ar
    10     3     1    1
    11     1    13    1
    12    13    14    1
    13    14    15    1
    14    15    16    1
    15    16    17    1
    16    16    18    1
    17     1    20    1
    18    20    21    1
    19    21    22   ar
    20    22    23   ar
    21    23    24   ar
    22    24    25   ar
    23    25    26   ar
    24    26    27   ar
    25    27    28   ar
    26    28    29   ar
    27    29    30    1
    28    30    31   ar
    29    31    32    1
    30    31    33   ar
    31    33    34   ar
    32    34    35   ar
    33    35    36   ar
    34    36    37    1
    35    12     6   ar
    36    18    14    1
    37    26    21   ar
    38    36    30   ar
    39    29    25   ar
    40     4     5    1
    41    17    19    1
@<TRIPOS>MOLECULE
*****
 37 41 0 0 0
SMALL
GASTEIGER

@<TRIPOS>ATOM
      1 C         138.2636  141.3913  161.1430 C.3     1  UNL1        0.2588
      2 O         140.0037  141.5817  159.2231 O.2     1  UNL1       -0.2708
      3 C         139.2128  140.7407  160.1807 C.2     1  UNL1        0.2689
      4 N         139.3710  139.2491  160.1761 N.am    1  UNL1       -0.2664
      5 H         138.8518  138.6971  160.8046 H       1  UNL1        0.1564
      6 C         140.3200  138.5985  159.2138 C.ar    1  UNL1        0.1344
      7 C         139.8409  138.1788  157.8558 C.ar    1  UNL1        0.0368
      8 C         140.7899  137.5282  156.8936 C.ar    1  UNL1        0.0341
      9 C         142.2183  137.2973  157.2893 C.ar    1  UNL1        0.1593
     10 F         143.1674  136.6467  156.3271 F       1  UNL1       -0.2025
     11 C         142.6975  137.7170  158.6474 C.ar    1  UNL1        0.1298
     12 N         141.7483  138.3676  159.6096 N.ar    1  UNL1       -0.2267
     13 C         138.0428  142.8740  161.0918 C.3     1  UNL1        0.1261
     14 N         139.0324  143.8022  161.7314 N.3     1  UNL1       -0.2650
     15 C         140.5232  143.8125  161.8974 C.3     1  UNL1        0.1033
     16 C         140.4319  145.1149  162.6359 C.3     1  UNL1        0.1423
     17 O         141.4215  146.0431  163.2755 O.3     1  UNL1       -0.3816
     18 C         138.9413  145.1046  162.4699 C.3     1  UNL1        0.1033
     19 H         142.3169  145.6861  163.1665 H       1  UNL1        0.2105
     20 O         137.5354  140.5590  162.1564 O.3     1  UNL1       -0.4529
     21 C         138.2983  139.8699  163.2488 C.ar    1  UNL1        0.2312
     22 N         138.5445  138.3921  163.1745 N.ar    1  UNL1       -0.1892
     23 C         139.3074  137.7031  164.2669 C.ar    1  UNL1        0.2029
     24 N         139.8240  138.4918  165.4335 N.ar    1  UNL1       -0.2046
     25 C         139.5778  139.9696  165.5078 C.ar    1  UNL1        0.1716
     26 C         138.8149  140.6586  164.4154 C.ar    1  UNL1        0.1098
     27 C         138.7276  142.1162  164.7592 C.ar    1  UNL1        0.1283
     28 N         139.4366  142.3279  166.0640 N.ar    1  UNL1       -0.1619
     29 N         139.9620  141.0012  166.5266 N.ar    1  UNL1       -0.2089
     30 C         140.7357  140.7502  167.7869 C.ar    1  UNL1        0.1222
     31 C         140.0564  140.1347  168.9742 C.ar    1  UNL1        0.1585
     32 F         138.6032  139.7702  168.9012 F       1  UNL1       -0.2026
     33 C         140.8302  139.8838  170.2344 C.ar    1  UNL1        0.0313
     34 C         142.2834  140.2483  170.3075 C.ar    1  UNL1        0.0033
     35 C         142.9627  140.8638  169.1202 C.ar    1  UNL1        0.0131
     36 C         142.1889  141.1148  167.8600 C.ar    1  UNL1        0.0776
     37 CL        142.8684  141.7303  166.6728 Cl      1  UNL1       -0.0806
@<TRIPOS>BOND
     1     2     3    2
     2     3     4   am
     3     4     6    1
     4     6     7   ar
     5     7     8   ar
     6     8     9   ar
     7     9    10    1
     8     9    11   ar
     9    11    12   ar
    10     3     1    1
    11     1    13    1
    12    13    14    1
    13    14    15    1
    14    15    16    1
    15    16    17    1
    16    16    18    1
    17     1    20    1
    18    20    21    1
    19    21    22   ar
    20    22    23   ar
    21    23    24   ar
    22    24    25   ar
    23    25    26   ar
    24    26    27   ar
    25    27    28   ar
    26    28    29   ar
    27    29    30    1
    28    30    31   ar
    29    31    32    1
    30    31    33   ar
    31    33    34   ar
    32    34    35   ar
    33    35    36   ar
    34    36    37    1
    35    12     6   ar
    36    18    14    1
    37    26    21   ar
    38    36    30   ar
    39    29    25   ar
    40     4     5    1
    41    17    19    1
@<TRIPOS>MOLECULE
*****
 37 41 0 0 0
SMALL
GASTEIGER

@<TRIPOS>ATOM
      1 C         139.4690  138.8941  160.0311 C.3     1  UNL1        0.2588
      2 O         137.9924  141.0287  159.9159 O.2     1  UNL1       -0.2708
      3 C         139.2906  140.3647  160.2673 C.2     1  UNL1        0.2689
      4 N         140.4106  141.1711  160.8549 N.am    1  UNL1       -0.2664
      5 H         141.2628  140.7353  161.0855 H       1  UNL1        0.1564
      6 C         140.2324  142.6416  161.0911 C.ar    1  UNL1        0.1344
      7 C         139.4728  143.1216  162.2922 C.ar    1  UNL1        0.0368
      8 C         139.2946  144.5921  162.5285 C.ar    1  UNL1        0.0341
      9 C         139.8758  145.5827  161.5636 C.ar    1  UNL1        0.1593
     10 F         139.6976  147.0531  161.7998 F       1  UNL1       -0.2025
     11 C         140.6354  145.1026  160.3624 C.ar    1  UNL1        0.1298
     12 N         140.8136  143.6321  160.1262 N.ar    1  UNL1       -0.2267
     13 C         139.9925  138.4042  158.7135 C.3     1  UNL1        0.1261
     14 N         141.3515  138.8290  158.2417 N.3     1  UNL1       -0.2650
     15 C         142.7603  138.5456  158.6723 C.3     1  UNL1        0.1033
     16 C         143.2735  139.4297  157.5745 C.3     1  UNL1        0.1423
     17 O         144.6325  139.8544  157.1027 O.3     1  UNL1       -0.3816
     18 C         141.8649  139.7130  157.1440 C.3     1  UNL1        0.1033
     19 H         145.3115  139.4427  157.6599 H       1  UNL1        0.2105
     20 O         139.1237  137.9135  161.1124 O.3     1  UNL1       -0.4529
     21 C         139.7865  138.0129  162.4544 C.ar    1  UNL1        0.2312
     22 N         140.9694  137.1473  162.7726 N.ar    1  UNL1       -0.1892
     23 C         141.6321  137.2466  164.1146 C.ar    1  UNL1        0.2029
     24 N         141.1118  138.2116  165.1384 N.ar    1  UNL1       -0.2046
     25 C         139.9288  139.0772  164.8202 C.ar    1  UNL1        0.1716
     26 C         139.2662  138.9778  163.4782 C.ar    1  UNL1        0.1098
     27 C         138.1261  139.9523  163.4509 C.ar    1  UNL1        0.1283
     28 N         138.0842  140.6539  164.7760 N.ar    1  UNL1       -0.1619
     29 N         139.1984  140.1130  165.6223 N.ar    1  UNL1       -0.2089
     30 C         139.5247  140.5341  167.0245 C.ar    1  UNL1        0.1222
     31 C         138.8529  139.8621  168.1850 C.ar    1  UNL1        0.1585
     32 F         137.8545  138.7689  167.9434 F       1  UNL1       -0.2026
     33 C         139.1792  140.2831  169.5872 C.ar    1  UNL1        0.0313
     34 C         140.1776  141.3763  169.8289 C.ar    1  UNL1        0.0033
     35 C         140.8494  142.0483  168.6684 C.ar    1  UNL1        0.0131
     36 C         140.5231  141.6272  167.2662 C.ar    1  UNL1        0.0776
     37 CL        141.1950  142.2993  166.1057 Cl      1  UNL1       -0.0806
@<TRIPOS>BOND
     1     2     3    2
     2     3     4   am
     3     4     6    1
     4     6     7   ar
     5     7     8   ar
     6     8     9   ar
     7     9    10    1
     8     9    11   ar
     9    11    12   ar
    10     3     1    1
    11     1    13    1
    12    13    14    1
    13    14    15    1
    14    15    16    1
    15    16    17    1
    16    16    18    1
    17     1    20    1
    18    20    21    1
    19    21    22   ar
    20    22    23   ar
    21    23    24   ar
    22    24    25   ar
    23    25    26   ar
    24    26    27   ar
    25    27    28   ar
    26    28    29   ar
    27    29    30    1
    28    30    31   ar
    29    31    32    1
    30    31    33   ar
    31    33    34   ar
    32    34    35   ar
    33    35    36   ar
    34    36    37    1
    35    12     6   ar
    36    18    14    1
    37    26    21   ar
    38    36    30   ar
    39    29    25   ar
    40     4     5    1
    41    17    19    1
@<TRIPOS>MOLECULE
*****
 37 41 0 0 0
SMALL
GASTEIGER

@<TRIPOS>ATOM
      1 C         139.6400  139.6000  164.9412 C.3     1  UNL1        0.2588
      2 O         141.2720  141.5863  165.3174 O.2     1  UNL1       -0.2708
      3 C         140.4123  140.4887  165.8707 C.2     1  UNL1        0.2689
      4 N         140.3248  140.2797  167.3535 N.am    1  UNL1       -0.2664
      5 H         139.7605  139.5593  167.7166 H       1  UNL1        0.1564
      6 C         141.0970  141.1683  168.2830 C.ar    1  UNL1        0.1344
      7 C         140.4591  142.4067  168.8394 C.ar    1  UNL1        0.0368
      8 C         141.2313  143.2953  169.7689 C.ar    1  UNL1        0.0341
      9 C         142.6415  142.9455  170.1421 C.ar    1  UNL1        0.1593
     10 F         143.4137  143.8341  171.0716 F       1  UNL1       -0.2025
     11 C         143.2794  141.7072  169.5857 C.ar    1  UNL1        0.1298
     12 N         142.5071  140.8185  168.6562 N.ar    1  UNL1       -0.2267
     13 C         140.2129  138.2803  164.5166 C.3     1  UNL1        0.1261
     14 N         141.4457  138.2375  163.6632 N.3     1  UNL1       -0.2650
     15 C         141.7531  137.7882  162.2654 C.3     1  UNL1        0.1033
     16 C         143.1892  138.1770  162.4563 C.3     1  UNL1        0.1423
     17 O         144.4220  138.1342  161.6029 O.3     1  UNL1       -0.3816
     18 C         142.8818  138.6263  163.8540 C.3     1  UNL1        0.1033
     19 H         144.2011  137.7637  160.7341 H       1  UNL1        0.2105
     20 O         138.2950  140.0311  164.4362 O.3     1  UNL1       -0.4529
     21 C         138.1848  141.1921  163.4929 C.ar    1  UNL1        0.2312
     22 N         137.8028  142.5466  164.0120 N.ar    1  UNL1       -0.1892
     23 C         137.6927  143.7076  163.0686 C.ar    1  UNL1        0.2029
     24 N         137.9645  143.5141  161.6062 N.ar    1  UNL1       -0.2046
     25 C         138.3465  142.1597  161.0871 C.ar    1  UNL1        0.1716
     26 C         138.4566  140.9987  162.0305 C.ar    1  UNL1        0.1098
     27 C         138.8497  139.7898  161.2340 C.ar    1  UNL1        0.1283
     28 N         138.9824  140.2038  159.7984 N.ar    1  UNL1       -0.1619
     29 N         138.6715  141.6684  159.7076 N.ar    1  UNL1       -0.2089
     30 C         138.6833  142.4965  158.4569 C.ar    1  UNL1        0.1222
     31 C         137.6849  142.2281  157.3702 C.ar    1  UNL1        0.1585
     32 F         136.6744  141.1317  157.5342 F       1  UNL1       -0.2026
     33 C         137.6967  143.0562  156.1196 C.ar    1  UNL1        0.0313
     34 C         138.7072  144.1526  155.9556 C.ar    1  UNL1        0.0033
     35 C         139.7056  144.4210  157.0423 C.ar    1  UNL1        0.0131
     36 C         139.6937  143.5929  158.2929 C.ar    1  UNL1        0.0776
     37 CL        140.6923  143.8613  159.3796 Cl      1  UNL1       -0.0806
@<TRIPOS>BOND
     1     2     3    2
     2     3     4   am
     3     4     6    1
     4     6     7   ar
     5     7     8   ar
     6     8     9   ar
     7     9    10    1
     8     9    11   ar
     9    11    12   ar
    10     3     1    1
    11     1    13    1
    12    13    14    1
    13    14    15    1
    14    15    16    1
    15    16    17    1
    16    16    18    1
    17     1    20    1
    18    20    21    1
    19    21    22   ar
    20    22    23   ar
    21    23    24   ar
    22    24    25   ar
    23    25    26   ar
    24    26    27   ar
    25    27    28   ar
    26    28    29   ar
    27    29    30    1
    28    30    31   ar
    29    31    32    1
    30    31    33   ar
    31    33    34   ar
    32    34    35   ar
    33    35    36   ar
    34    36    37    1
    35    12     6   ar
    36    18    14    1
    37    26    21   ar
    38    36    30   ar
    39    29    25   ar
    40     4     5    1
    41    17    19    1
@<TRIPOS>MOLECULE
*****
 37 41 0 0 0
SMALL
GASTEIGER

@<TRIPOS>ATOM
      1 C         141.3714  144.3652  161.1505 C.3     1  UNL1        0.2588
      2 O         141.0098  142.9377  159.0100 O.2     1  UNL1       -0.2708
      3 C         141.9243  143.4975  160.0589 C.2     1  UNL1        0.2689
      4 N         143.3917  143.1896  160.0164 N.am    1  UNL1       -0.2664
      5 H         143.9919  143.5570  160.7048 H       1  UNL1        0.1564
      6 C         143.9446  142.3219  158.9249 C.ar    1  UNL1        0.1344
      7 C         145.1276  142.7835  158.1265 C.ar    1  UNL1        0.0368
      8 C         145.6806  141.9159  157.0350 C.ar    1  UNL1        0.0341
      9 C         145.0505  140.5865  156.7419 C.ar    1  UNL1        0.1593
     10 F         145.6034  139.7188  155.6505 F       1  UNL1       -0.2025
     11 C         143.8675  140.1248  157.5403 C.ar    1  UNL1        0.1298
     12 N         143.3146  140.9926  158.6318 N.ar    1  UNL1       -0.2267
     13 C         139.9058  144.6828  161.1863 C.3     1  UNL1        0.1261
     14 N         138.9386  143.6960  161.7700 N.3     1  UNL1       -0.2650
     15 C         137.8276  143.7673  162.7754 C.3     1  UNL1        0.1033
     16 C         137.5708  142.3004  162.5955 C.3     1  UNL1        0.1423
     17 O         136.6036  141.3136  163.1791 O.3     1  UNL1       -0.3816
     18 C         138.6817  142.2291  161.5902 C.3     1  UNL1        0.1033
     19 H         136.0269  141.7640  163.8159 H       1  UNL1        0.2105
     20 O         142.2840  144.9154  162.2061 O.3     1  UNL1       -0.4529
     21 C         142.9362  143.9900  163.1903 C.ar    1  UNL1        0.2312
     22 N         144.3491  143.5368  162.9710 N.ar    1  UNL1       -0.1892
     23 C         145.0011  142.6114  163.9551 C.ar    1  UNL1        0.2029
     24 N         144.2402  142.1393  165.1585 N.ar    1  UNL1       -0.2046
     25 C         142.8273  142.5925  165.3777 C.ar    1  UNL1        0.1716
     26 C         142.1752  143.5178  164.3936 C.ar    1  UNL1        0.1098
     27 C         140.7800  143.7934  164.8706 C.ar    1  UNL1        0.1283
     28 N         140.5698  143.0383  166.1495 N.ar    1  UNL1       -0.1619
     29 N         141.8351  142.2961  166.4629 N.ar    1  UNL1       -0.2089
     30 C         142.0674  141.4127  167.6527 C.ar    1  UNL1        0.1222
     31 C         142.0077  141.9875  169.0368 C.ar    1  UNL1        0.1585
     32 F         141.7157  143.4460  169.2313 F       1  UNL1       -0.2026
     33 C         142.2401  141.1041  170.2266 C.ar    1  UNL1        0.0313
     34 C         142.5321  139.6457  170.0322 C.ar    1  UNL1        0.0033
     35 C         142.5917  139.0708  168.6481 C.ar    1  UNL1        0.0131
     36 C         142.3594  139.9543  167.4583 C.ar    1  UNL1        0.0776
     37 CL        142.4191  139.3793  166.0742 Cl      1  UNL1       -0.0806
@<TRIPOS>BOND
     1     2     3    2
     2     3     4   am
     3     4     6    1
     4     6     7   ar
     5     7     8   ar
     6     8     9   ar
     7     9    10    1
     8     9    11   ar
     9    11    12   ar
    10     3     1    1
    11     1    13    1
    12    13    14    1
    13    14    15    1
    14    15    16    1
    15    16    17    1
    16    16    18    1
    17     1    20    1
    18    20    21    1
    19    21    22   ar
    20    22    23   ar
    21    23    24   ar
    22    24    25   ar
    23    25    26   ar
    24    26    27   ar
    25    27    28   ar
    26    28    29   ar
    27    29    30    1
    28    30    31   ar
    29    31    32    1
    30    31    33   ar
    31    33    34   ar
    32    34    35   ar
    33    35    36   ar
    34    36    37    1
    35    12     6   ar
    36    18    14    1
    37    26    21   ar
    38    36    30   ar
    39    29    25   ar
    40     4     5    1
    41    17    19    1
