@<TRIPOS>MOLECULE
*****
 33 37 0 0 0
SMALL
GASTEIGER

@<TRIPOS>ATOM
      1 C         140.2347  139.9446  170.6229 C.3     1  UNL1        0.0473
      2 C         141.4975  139.4771  169.9620 C.3     1  UNL1        0.0037
      3 C         142.7626  138.6722  170.0003 C.3     1  UNL1        0.0001
      4 C         142.4196  139.4724  168.7789 C.3     1  UNL1        0.0002
      5 C         142.7539  139.9317  167.3906 C.3     1  UNL1        0.0034
      6 C         142.9930  141.3875  167.1195 C.3     1  UNL1        0.0216
      7 C         143.3274  141.8468  165.7312 C.3     1  UNL1        0.0936
      8 N         143.4225  140.8503  164.6141 N.pl3   1  UNL1       -0.2782
      9 C         143.1834  139.3946  164.8853 C.3     1  UNL1        0.0936
     10 C         142.8490  138.9353  166.2735 C.3     1  UNL1        0.0216
     11 C         143.7568  141.3096  163.2259 C.ar    1  UNL1        0.2202
     12 N         144.0670  142.7544  162.9682 N.ar    1  UNL1       -0.2112
     13 C         144.4014  143.2137  161.5799 C.ar    1  UNL1        0.1147
     14 C         144.4255  142.2282  160.4493 C.ar    1  UNL1        0.0960
     15 CL        144.7598  142.6875  159.0611 Cl      1  UNL1       -0.0790
     16 C         144.1153  140.7835  160.7070 C.ar    1  UNL1        0.1147
     17 N         143.7810  140.3242  162.0953 N.ar    1  UNL1       -0.2112
     18 C         139.0909  140.4408  169.7888 C.3     1  UNL1        0.2054
     19 O         138.3933  139.5093  168.8424 O.3     1  UNL1       -0.4754
     20 C         139.4286  139.5596  164.4635 C.ar    1  UNL1        0.0810
     21 C         139.7523  140.7445  165.3243 C.ar    1  UNL1        0.0099
     22 C         139.4071  140.7278  166.7839 C.ar    1  UNL1        0.0372
     23 C         138.7384  139.5260  167.3827 C.ar    1  UNL1        0.1408
     24 C         138.4148  138.3411  166.5219 C.ar    1  UNL1        0.0666
     25 C         138.7599  138.3578  165.0623 C.ar    1  UNL1        0.1475
     26 F         138.4362  137.1728  164.2014 F       1  UNL1       -0.2039
     27 O         139.3518  140.7326  162.1465 O.2     1  UNL1       -0.2701
     28 C         139.7737  139.5763  163.0038 C.2     1  UNL1        0.2480
     29 N         140.5407  138.4367  162.4013 N.am    1  UNL1       -0.3024
     30 H         140.8177  137.6777  162.9640 H       1  UNL1        0.1497
     31 C         140.8859  138.4534  160.9416 C.3     1  UNL1        0.0720
     32 C         141.8655  138.1957  159.8354 C.3     1  UNL1        0.0213
     33 C         140.5039  138.7400  159.5196 C.3     1  UNL1        0.0213
@<TRIPOS>BOND
     1    27    28    2
     2    28    29   am
     3    29    31    1
     4    31    32    1
     5    32    33    1
     6    28    20    1
     7    20    21   ar
     8    21    22   ar
     9    22    23   ar
    10    23    19    1
    11    19    18    1
    12    18     1    1
    13     1     2    1
    14     2     3    1
    15     3     4    1
    16     4     5    1
    17     5     6    1
    18     6     7    1
    19     7     8    1
    20     8    11    1
    21    11    12   ar
    22    12    13   ar
    23    13    14   ar
    24    14    15    1
    25    14    16   ar
    26    16    17   ar
    27     8     9    1
    28     9    10    1
    29    23    24   ar
    30    24    25   ar
    31    25    26    1
    32    33    31    1
    33    25    20   ar
    34     4     2    1
    35    10     5    1
    36    17    11   ar
    37    29    30    1
@<TRIPOS>MOLECULE
*****
 33 37 0 0 0
SMALL
GASTEIGER

@<TRIPOS>ATOM
      1 C         140.2842  142.3449  170.4623 C.3     1  UNL1        0.0473
      2 C         139.5400  141.2098  169.8240 C.3     1  UNL1        0.0037
      3 C         138.6305  140.0229  169.9425 C.3     1  UNL1        0.0001
      4 C         139.1605  140.4305  168.5998 C.3     1  UNL1        0.0002
      5 C         139.2473  140.2159  167.1178 C.3     1  UNL1        0.0034
      6 C         139.7195  141.3255  166.2257 C.3     1  UNL1        0.0216
      7 C         139.8063  141.1109  164.7437 C.3     1  UNL1        0.0936
      8 N         139.4211  139.7867  164.1537 N.pl3   1  UNL1       -0.2782
      9 C         138.9489  138.6771  165.0458 C.3     1  UNL1        0.0936
     10 C         138.8621  138.8917  166.5278 C.3     1  UNL1        0.0216
     11 C         139.5079  139.5721  162.6717 C.ar    1  UNL1        0.2202
     12 N         139.0222  138.2868  162.0703 N.ar    1  UNL1       -0.2112
     13 C         139.1090  138.0722  160.5882 C.ar    1  UNL1        0.1147
     14 C         139.6817  139.1430  159.7077 C.ar    1  UNL1        0.0960
     15 CL        139.7685  138.9284  158.2256 Cl      1  UNL1       -0.0790
     16 C         140.1674  140.4283  160.3091 C.ar    1  UNL1        0.1147
     17 N         140.0806  140.6429  161.7911 N.ar    1  UNL1       -0.2112
     18 C         141.7490  142.5263  170.1946 C.3     1  UNL1        0.2054
     19 O         142.6000  141.3413  169.8458 O.3     1  UNL1       -0.4754
     20 C         143.4003  140.3373  165.5329 C.ar    1  UNL1        0.0810
     21 C         143.4327  141.7659  165.9888 C.ar    1  UNL1        0.0099
     22 C         143.1659  142.1006  167.4264 C.ar    1  UNL1        0.0372
     23 C         142.8668  141.0066  168.4081 C.ar    1  UNL1        0.1408
     24 C         142.8344  139.5780  167.9522 C.ar    1  UNL1        0.0666
     25 C         143.1011  139.2433  166.5146 C.ar    1  UNL1        0.1475
     26 F         143.0687  137.8146  166.0586 F       1  UNL1       -0.2039
     27 O         144.8325  140.6240  163.3843 O.2     1  UNL1       -0.2701
     28 C         143.6670  140.0026  164.0952 C.2     1  UNL1        0.2480
     29 N         142.7683  139.0465  163.3685 N.am    1  UNL1       -0.3024
     30 H         142.0033  138.6386  163.8351 H       1  UNL1        0.1497
     31 C         143.0351  138.7118  161.9308 C.3     1  UNL1        0.0720
     32 C         143.6501  139.0614  160.6082 C.3     1  UNL1        0.0213
     33 C         142.8821  137.7824  160.7634 C.3     1  UNL1        0.0213
@<TRIPOS>BOND
     1    27    28    2
     2    28    29   am
     3    29    31    1
     4    31    32    1
     5    32    33    1
     6    28    20    1
     7    20    21   ar
     8    21    22   ar
     9    22    23   ar
    10    23    19    1
    11    19    18    1
    12    18     1    1
    13     1     2    1
    14     2     3    1
    15     3     4    1
    16     4     5    1
    17     5     6    1
    18     6     7    1
    19     7     8    1
    20     8    11    1
    21    11    12   ar
    22    12    13   ar
    23    13    14   ar
    24    14    15    1
    25    14    16   ar
    26    16    17   ar
    27     8     9    1
    28     9    10    1
    29    23    24   ar
    30    24    25   ar
    31    25    26    1
    32    33    31    1
    33    25    20   ar
    34     4     2    1
    35    10     5    1
    36    17    11   ar
    37    29    30    1
@<TRIPOS>MOLECULE
*****
 33 37 0 0 0
SMALL
GASTEIGER

@<TRIPOS>ATOM
      1 C         139.3257  140.1941  168.8075 C.3     1  UNL1        0.0473
      2 C         138.6333  139.3826  167.7531 C.3     1  UNL1        0.0037
      3 C         137.4936  138.5041  167.3297 C.3     1  UNL1        0.0001
      4 C         138.5737  138.8554  166.3500 C.3     1  UNL1        0.0002
      5 C         139.1630  138.7540  164.9744 C.3     1  UNL1        0.0034
      6 C         139.8971  137.5124  164.5626 C.3     1  UNL1        0.0216
      7 C         140.4863  137.4109  163.1870 C.3     1  UNL1        0.0936
      8 N         140.3414  138.5510  162.2230 N.pl3   1  UNL1       -0.2782
      9 C         139.6073  139.7925  162.6347 C.3     1  UNL1        0.0936
     10 C         139.0181  139.8940  164.0104 C.3     1  UNL1        0.0216
     11 C         140.9307  138.4495  160.8473 C.ar    1  UNL1        0.2202
     12 N         140.0641  138.6664  159.6424 N.ar    1  UNL1       -0.2112
     13 C         140.6534  138.5649  158.2667 C.ar    1  UNL1        0.1147
     14 C         142.1092  138.2465  158.0960 C.ar    1  UNL1        0.0960
     15 CL        142.6984  138.1450  156.7203 Cl      1  UNL1       -0.0790
     16 C         142.9757  138.0296  159.3009 C.ar    1  UNL1        0.1147
     17 N         142.3865  138.1311  160.6766 N.ar    1  UNL1       -0.2112
     18 C         140.8046  140.4300  168.7218 C.3     1  UNL1        0.2054
     19 O         141.6733  139.4753  167.9578 O.3     1  UNL1       -0.4754
     20 C         143.2056  140.5989  163.8786 C.ar    1  UNL1        0.0810
     21 C         143.5124  139.2458  164.4485 C.ar    1  UNL1        0.0099
     22 C         143.0017  138.8713  165.8082 C.ar    1  UNL1        0.0372
     23 C         142.1841  139.8499  166.5980 C.ar    1  UNL1        0.1408
     24 C         141.8772  141.2030  166.0281 C.ar    1  UNL1        0.0666
     25 C         142.3879  141.5775  164.6684 C.ar    1  UNL1        0.1475
     26 F         142.0811  142.9307  164.0984 F       1  UNL1       -0.2039
     27 O         145.1909  140.9675  162.2437 O.2     1  UNL1       -0.2701
     28 C         143.7163  140.9735  162.5188 C.2     1  UNL1        0.2480
     29 N         142.7526  141.3540  161.4343 N.am    1  UNL1       -0.3024
     30 H         141.7848  141.3579  161.6149 H       1  UNL1        0.1497
     31 C         143.2633  141.7286  160.0745 C.3     1  UNL1        0.0720
     32 C         144.2946  142.3938  159.2121 C.3     1  UNL1        0.0213
     33 C         143.1166  141.7121  158.5818 C.3     1  UNL1        0.0213
@<TRIPOS>BOND
     1    27    28    2
     2    28    29   am
     3    29    31    1
     4    31    32    1
     5    32    33    1
     6    28    20    1
     7    20    21   ar
     8    21    22   ar
     9    22    23   ar
    10    23    19    1
    11    19    18    1
    12    18     1    1
    13     1     2    1
    14     2     3    1
    15     3     4    1
    16     4     5    1
    17     5     6    1
    18     6     7    1
    19     7     8    1
    20     8    11    1
    21    11    12   ar
    22    12    13   ar
    23    13    14   ar
    24    14    15    1
    25    14    16   ar
    26    16    17   ar
    27     8     9    1
    28     9    10    1
    29    23    24   ar
    30    24    25   ar
    31    25    26    1
    32    33    31    1
    33    25    20   ar
    34     4     2    1
    35    10     5    1
    36    17    11   ar
    37    29    30    1
@<TRIPOS>MOLECULE
*****
 33 37 0 0 0
SMALL
GASTEIGER

@<TRIPOS>ATOM
      1 C         138.5812  140.7496  159.0609 C.3     1  UNL1        0.0473
      2 C         139.8989  141.2734  159.5500 C.3     1  UNL1        0.0037
      3 C         141.2868  141.7668  159.2664 C.3     1  UNL1        0.0001
      4 C         140.7935  141.6873  160.6807 C.3     1  UNL1        0.0002
      5 C         141.0251  141.8804  162.1501 C.3     1  UNL1        0.0034
      6 C         141.5236  140.7398  162.9870 C.3     1  UNL1        0.0216
      7 C         141.7553  140.9329  164.4564 C.3     1  UNL1        0.0936
      8 N         141.4883  142.2666  165.0888 N.pl3   1  UNL1       -0.2782
      9 C         140.9898  143.4071  164.2519 C.3     1  UNL1        0.0936
     10 C         140.7582  143.2141  162.7825 C.3     1  UNL1        0.0216
     11 C         141.7200  142.4596  166.5582 C.ar    1  UNL1        0.2202
     12 N         140.6149  142.9782  167.4299 N.ar    1  UNL1       -0.2112
     13 C         140.8465  143.1712  168.8993 C.ar    1  UNL1        0.1147
     14 C         142.1832  142.8458  169.4970 C.ar    1  UNL1        0.0960
     15 CL        142.4149  143.0389  170.9663 Cl      1  UNL1       -0.0790
     16 C         143.2883  142.3273  168.6253 C.ar    1  UNL1        0.1147
     17 N         143.0567  142.1342  167.1559 N.ar    1  UNL1       -0.2112
     18 C         137.7008  139.9572  159.9813 C.3     1  UNL1        0.2054
     19 O         138.2734  138.8165  160.7693 O.3     1  UNL1       -0.4754
     20 C         138.5384  139.0884  165.2533 C.ar    1  UNL1        0.0810
     21 C         138.0183  140.2510  164.4608 C.ar    1  UNL1        0.0099
     22 C         137.9300  140.1603  162.9662 C.ar    1  UNL1        0.0372
     23 C         138.3618  138.9071  162.2640 C.ar    1  UNL1        0.1408
     24 C         138.8818  137.7446  163.0564 C.ar    1  UNL1        0.0666
     25 C         138.9702  137.8353  164.5511 C.ar    1  UNL1        0.1475
     26 F         139.4903  136.6727  165.3435 F       1  UNL1       -0.2039
     27 O         137.5177  138.6354  167.5991 O.2     1  UNL1       -0.2701
     28 C         138.6268  139.1791  166.7480 C.2     1  UNL1        0.2480
     29 N         139.8241  139.8133  167.3914 N.am    1  UNL1       -0.3024
     30 H         140.5520  140.1701  166.8328 H       1  UNL1        0.1497
     31 C         139.9125  139.9039  168.8861 C.3     1  UNL1        0.0720
     32 C         139.2876  140.2469  170.2059 C.3     1  UNL1        0.0213
     33 C         140.6903  139.7178  170.1551 C.3     1  UNL1        0.0213
@<TRIPOS>BOND
     1    27    28    2
     2    28    29   am
     3    29    31    1
     4    31    32    1
     5    32    33    1
     6    28    20    1
     7    20    21   ar
     8    21    22   ar
     9    22    23   ar
    10    23    19    1
    11    19    18    1
    12    18     1    1
    13     1     2    1
    14     2     3    1
    15     3     4    1
    16     4     5    1
    17     5     6    1
    18     6     7    1
    19     7     8    1
    20     8    11    1
    21    11    12   ar
    22    12    13   ar
    23    13    14   ar
    24    14    15    1
    25    14    16   ar
    26    16    17   ar
    27     8     9    1
    28     9    10    1
    29    23    24   ar
    30    24    25   ar
    31    25    26    1
    32    33    31    1
    33    25    20   ar
    34     4     2    1
    35    10     5    1
    36    17    11   ar
    37    29    30    1
@<TRIPOS>MOLECULE
*****
 33 37 0 0 0
SMALL
GASTEIGER

@<TRIPOS>ATOM
      1 C         141.3174  140.4442  170.6930 C.3     1  UNL1        0.0473
      2 C         140.0204  140.2954  169.9545 C.3     1  UNL1        0.0037
      3 C         138.5231  140.2054  169.9638 C.3     1  UNL1        0.0001
      4 C         139.2711  140.1277  168.6659 C.3     1  UNL1        0.0002
      5 C         139.2703  139.9860  167.1726 C.3     1  UNL1        0.0034
      6 C         138.9024  138.6748  166.5439 C.3     1  UNL1        0.0216
      7 C         138.9016  138.5331  165.0506 C.3     1  UNL1        0.0936
      8 N         139.2687  139.7027  164.1861 N.pl3   1  UNL1       -0.2782
      9 C         139.6365  141.0139  164.8148 C.3     1  UNL1        0.0936
     10 C         139.6373  141.1556  166.3081 C.3     1  UNL1        0.0216
     11 C         139.2678  139.5610  162.6928 C.ar    1  UNL1        0.2202
     12 N         138.0285  139.8789  161.9099 N.ar    1  UNL1       -0.2112
     13 C         138.0277  139.7372  160.4166 C.ar    1  UNL1        0.1147
     14 C         139.2662  139.2776  159.7062 C.ar    1  UNL1        0.0960
     15 CL        139.2654  139.1359  158.2129 Cl      1  UNL1       -0.0790
     16 C         140.5056  138.9597  160.4890 C.ar    1  UNL1        0.1147
     17 N         140.5064  139.1014  161.9823 N.ar    1  UNL1       -0.2112
     18 C         142.6106  140.1024  170.0141 C.3     1  UNL1        0.2054
     19 O         142.6190  139.1587  168.8482 O.3     1  UNL1       -0.4754
     20 C         143.2897  140.7311  164.6855 C.ar    1  UNL1        0.0810
     21 C         143.0701  139.2639  164.9066 C.ar    1  UNL1        0.0099
     22 C         142.8466  138.7398  166.2942 C.ar    1  UNL1        0.0372
     23 C         142.8426  139.6829  167.4606 C.ar    1  UNL1        0.1408
     24 C         143.0622  141.1501  167.2394 C.ar    1  UNL1        0.0666
     25 C         143.2858  141.6742  165.8519 C.ar    1  UNL1        0.1475
     26 F         143.5054  143.1416  165.6307 F       1  UNL1       -0.2039
     27 O         144.9094  141.4720  162.7940 O.2     1  UNL1       -0.2701
     28 C         143.5133  141.2553  163.2979 C.2     1  UNL1        0.2480
     29 N         142.3408  141.5627  162.4144 N.am    1  UNL1       -0.3024
     30 H         141.4245  141.4205  162.7451 H       1  UNL1        0.1497
     31 C         142.5644  142.0869  161.0268 C.3     1  UNL1        0.0720
     32 C         142.9354  143.2126  160.1075 C.3     1  UNL1        0.0213
     33 C         142.5806  141.8691  159.5428 C.3     1  UNL1        0.0213
@<TRIPOS>BOND
     1    27    28    2
     2    28    29   am
     3    29    31    1
     4    31    32    1
     5    32    33    1
     6    28    20    1
     7    20    21   ar
     8    21    22   ar
     9    22    23   ar
    10    23    19    1
    11    19    18    1
    12    18     1    1
    13     1     2    1
    14     2     3    1
    15     3     4    1
    16     4     5    1
    17     5     6    1
    18     6     7    1
    19     7     8    1
    20     8    11    1
    21    11    12   ar
    22    12    13   ar
    23    13    14   ar
    24    14    15    1
    25    14    16   ar
    26    16    17   ar
    27     8     9    1
    28     9    10    1
    29    23    24   ar
    30    24    25   ar
    31    25    26    1
    32    33    31    1
    33    25    20   ar
    34     4     2    1
    35    10     5    1
    36    17    11   ar
    37    29    30    1
@<TRIPOS>MOLECULE
*****
 33 37 0 0 0
SMALL
GASTEIGER

@<TRIPOS>ATOM
      1 C         142.8541  141.4909  170.2120 C.3     1  UNL1        0.0473
      2 C         142.8095  140.2375  169.3893 C.3     1  UNL1        0.0037
      3 C         142.6899  138.7448  169.3015 C.3     1  UNL1        0.0001
      4 C         142.8518  139.5591  168.0522 C.3     1  UNL1        0.0002
      5 C         142.9697  139.6375  166.5589 C.3     1  UNL1        0.0034
      6 C         143.1956  140.9624  165.8930 C.3     1  UNL1        0.0216
      7 C         143.3135  141.0408  164.3997 C.3     1  UNL1        0.0936
      8 N         143.2055  139.7943  163.5723 N.pl3   1  UNL1       -0.2782
      9 C         142.9795  138.4694  164.2382 C.3     1  UNL1        0.0936
     10 C         142.8616  138.3910  165.7315 C.3     1  UNL1        0.0216
     11 C         143.3234  139.8727  162.0790 C.ar    1  UNL1        0.2202
     12 N         143.0698  138.6544  161.2416 N.ar    1  UNL1       -0.2112
     13 C         143.1877  138.7328  159.7483 C.ar    1  UNL1        0.1147
     14 C         143.5592  140.0296  159.0924 C.ar    1  UNL1        0.0960
     15 CL        143.6771  140.1080  157.5991 Cl      1  UNL1       -0.0790
     16 C         143.8127  141.2480  159.9298 C.ar    1  UNL1        0.1147
     17 N         143.6948  141.1695  161.4231 N.ar    1  UNL1       -0.2112
     18 C         141.7024  141.8424  171.1064 C.3     1  UNL1        0.2054
     19 O         140.3578  142.1444  170.5141 O.3     1  UNL1       -0.4754
     20 C         139.3583  140.7261  166.3621 C.ar    1  UNL1        0.0810
     21 C         139.0414  139.8619  167.5464 C.ar    1  UNL1        0.0099
     22 C         139.3745  140.3347  168.9303 C.ar    1  UNL1        0.0372
     23 C         140.0246  141.6717  169.1300 C.ar    1  UNL1        0.1408
     24 C         140.3416  142.5359  167.9457 C.ar    1  UNL1        0.0666
     25 C         140.0084  142.0631  166.5617 C.ar    1  UNL1        0.1475
     26 F         140.3253  142.9273  165.3773 F       1  UNL1       -0.2039
     27 O         138.2593  141.1441  164.0452 O.2     1  UNL1       -0.2701
     28 C         139.0251  140.2533  164.9780 C.2     1  UNL1        0.2480
     29 N         139.4578  138.8899  164.5267 N.am    1  UNL1       -0.3024
     30 H         139.9605  138.3052  165.1389 H       1  UNL1        0.1497
     31 C         139.1247  138.4171  163.1426 C.3     1  UNL1        0.0720
     32 C         139.5653  138.0075  161.7686 C.3     1  UNL1        0.0213
     33 C         138.1070  138.0079  162.1195 C.3     1  UNL1        0.0213
@<TRIPOS>BOND
     1    27    28    2
     2    28    29   am
     3    29    31    1
     4    31    32    1
     5    32    33    1
     6    28    20    1
     7    20    21   ar
     8    21    22   ar
     9    22    23   ar
    10    23    19    1
    11    19    18    1
    12    18     1    1
    13     1     2    1
    14     2     3    1
    15     3     4    1
    16     4     5    1
    17     5     6    1
    18     6     7    1
    19     7     8    1
    20     8    11    1
    21    11    12   ar
    22    12    13   ar
    23    13    14   ar
    24    14    15    1
    25    14    16   ar
    26    16    17   ar
    27     8     9    1
    28     9    10    1
    29    23    24   ar
    30    24    25   ar
    31    25    26    1
    32    33    31    1
    33    25    20   ar
    34     4     2    1
    35    10     5    1
    36    17    11   ar
    37    29    30    1
@<TRIPOS>MOLECULE
*****
 33 37 0 0 0
SMALL
GASTEIGER

@<TRIPOS>ATOM
      1 C         141.6353  139.6318  170.2951 C.3     1  UNL1        0.0473
      2 C         140.3051  139.9691  169.6894 C.3     1  UNL1        0.0037
      3 C         138.8577  140.3279  169.8509 C.3     1  UNL1        0.0001
      4 C         139.4487  140.1944  168.4788 C.3     1  UNL1        0.0002
      5 C         139.2954  140.2473  166.9876 C.3     1  UNL1        0.0034
      6 C         139.6268  141.5070  166.2438 C.3     1  UNL1        0.0216
      7 C         139.4735  141.5600  164.7526 C.3     1  UNL1        0.0936
      8 N         138.9888  140.3532  164.0051 N.pl3   1  UNL1       -0.2782
      9 C         138.6574  139.0935  164.7489 C.3     1  UNL1        0.0936
     10 C         138.8107  139.0405  166.2401 C.3     1  UNL1        0.0216
     11 C         138.8355  140.4061  162.5139 C.ar    1  UNL1        0.2202
     12 N         139.7877  141.2218  161.6906 N.ar    1  UNL1       -0.2112
     13 C         139.6344  141.2747  160.1994 C.ar    1  UNL1        0.1147
     14 C         138.5290  140.5120  159.5315 C.ar    1  UNL1        0.0960
     15 CL        138.3757  140.5649  158.0403 Cl      1  UNL1       -0.0790
     16 C         137.5767  139.6963  160.3549 C.ar    1  UNL1        0.1147
     17 N         137.7300  139.6434  161.8461 N.ar    1  UNL1       -0.2112
     18 C         142.8809  140.2947  169.7861 C.3     1  UNL1        0.2054
     19 O         142.7942  141.3092  168.6846 O.3     1  UNL1       -0.4754
     20 C         143.1110  140.0008  164.3907 C.ar    1  UNL1        0.0810
     21 C         142.8773  138.9847  165.4690 C.ar    1  UNL1        0.0099
     22 C         142.7717  139.4208  166.9003 C.ar    1  UNL1        0.0372
     23 C         142.8998  140.8731  167.2533 C.ar    1  UNL1        0.1408
     24 C         143.1335  141.8892  166.1750 C.ar    1  UNL1        0.0666
     25 C         143.2391  141.4531  164.7437 C.ar    1  UNL1        0.1475
     26 F         143.4728  142.4692  163.6653 F       1  UNL1       -0.2039
     27 O         144.4744  139.8287  162.1858 O.2     1  UNL1       -0.2701
     28 C         143.2167  139.5648  162.9593 C.2     1  UNL1        0.2480
     29 N         142.0646  138.8647  162.3016 N.am    1  UNL1       -0.3024
     30 H         141.2391  138.6915  162.8094 H       1  UNL1        0.1497
     31 C         142.1702  138.4286  160.8703 C.3     1  UNL1        0.0720
     32 C         141.6589  138.4635  159.4606 C.3     1  UNL1        0.0213
     33 C         142.8645  137.6384  159.8008 C.3     1  UNL1        0.0213
@<TRIPOS>BOND
     1    27    28    2
     2    28    29   am
     3    29    31    1
     4    31    32    1
     5    32    33    1
     6    28    20    1
     7    20    21   ar
     8    21    22   ar
     9    22    23   ar
    10    23    19    1
    11    19    18    1
    12    18     1    1
    13     1     2    1
    14     2     3    1
    15     3     4    1
    16     4     5    1
    17     5     6    1
    18     6     7    1
    19     7     8    1
    20     8    11    1
    21    11    12   ar
    22    12    13   ar
    23    13    14   ar
    24    14    15    1
    25    14    16   ar
    26    16    17   ar
    27     8     9    1
    28     9    10    1
    29    23    24   ar
    30    24    25   ar
    31    25    26    1
    32    33    31    1
    33    25    20   ar
    34     4     2    1
    35    10     5    1
    36    17    11   ar
    37    29    30    1
@<TRIPOS>MOLECULE
*****
 33 37 0 0 0
SMALL
GASTEIGER

@<TRIPOS>ATOM
      1 C         140.3455  141.3525  171.0251 C.3     1  UNL1        0.0473
      2 C         140.4759  142.5129  170.0836 C.3     1  UNL1        0.0037
      3 C         140.3552  143.9825  169.8086 C.3     1  UNL1        0.0001
      4 C         140.8225  143.0532  168.7279 C.3     1  UNL1        0.0002
      5 C         141.2924  142.8286  167.3213 C.3     1  UNL1        0.0034
      6 C         142.7292  142.4898  167.0556 C.3     1  UNL1        0.0216
      7 C         143.1991  142.2652  165.6489 C.3     1  UNL1        0.0936
      8 N         142.2322  142.3793  164.5079 N.pl3   1  UNL1       -0.2782
      9 C         140.7953  142.7180  164.7736 C.3     1  UNL1        0.0936
     10 C         140.3254  142.9427  166.1803 C.3     1  UNL1        0.0216
     11 C         142.7021  142.1546  163.1012 C.ar    1  UNL1        0.2202
     12 N         143.8144  142.9897  162.5397 N.ar    1  UNL1       -0.2112
     13 C         144.2843  142.7651  161.1330 C.ar    1  UNL1        0.1147
     14 C         143.6419  141.7054  160.2879 C.ar    1  UNL1        0.0960
     15 CL        144.1118  141.4807  158.8812 Cl      1  UNL1       -0.0790
     16 C         142.5296  140.8703  160.8494 C.ar    1  UNL1        0.1147
     17 N         142.0597  141.0949  162.2561 N.ar    1  UNL1       -0.2112
     18 C         140.4978  139.9507  170.5134 C.3     1  UNL1        0.2054
     19 O         141.4286  139.6658  169.3722 O.3     1  UNL1       -0.4754
     20 C         139.7929  139.1308  165.2143 C.ar    1  UNL1        0.0810
     21 C         138.8714  139.4886  166.3425 C.ar    1  UNL1        0.0099
     22 C         139.4166  139.6669  167.7284 C.ar    1  UNL1        0.0372
     23 C         140.8833  139.4875  167.9862 C.ar    1  UNL1        0.1408
     24 C         141.8048  139.1297  166.8580 C.ar    1  UNL1        0.0666
     25 C         141.2596  138.9514  165.4721 C.ar    1  UNL1        0.1475
     26 F         142.1811  138.5936  164.3438 F       1  UNL1       -0.2039
     27 O         138.7846  137.6004  163.3728 O.2     1  UNL1       -0.2701
     28 C         139.2476  138.9525  163.8283 C.2     1  UNL1        0.2480
     29 N         139.1655  140.1262  162.8979 N.am    1  UNL1       -0.3024
     30 H         139.4694  141.0136  163.1969 H       1  UNL1        0.1497
     31 C         138.6203  139.9478  161.5119 C.3     1  UNL1        0.0720
     32 C         137.4497  139.8079  160.5845 C.3     1  UNL1        0.0213
     33 C         138.8465  139.7788  160.0387 C.3     1  UNL1        0.0213
@<TRIPOS>BOND
     1    27    28    2
     2    28    29   am
     3    29    31    1
     4    31    32    1
     5    32    33    1
     6    28    20    1
     7    20    21   ar
     8    21    22   ar
     9    22    23   ar
    10    23    19    1
    11    19    18    1
    12    18     1    1
    13     1     2    1
    14     2     3    1
    15     3     4    1
    16     4     5    1
    17     5     6    1
    18     6     7    1
    19     7     8    1
    20     8    11    1
    21    11    12   ar
    22    12    13   ar
    23    13    14   ar
    24    14    15    1
    25    14    16   ar
    26    16    17   ar
    27     8     9    1
    28     9    10    1
    29    23    24   ar
    30    24    25   ar
    31    25    26    1
    32    33    31    1
    33    25    20   ar
    34     4     2    1
    35    10     5    1
    36    17    11   ar
    37    29    30    1
@<TRIPOS>MOLECULE
*****
 33 37 0 0 0
SMALL
GASTEIGER

@<TRIPOS>ATOM
      1 C         139.5544  140.2156  168.4234 C.3     1  UNL1        0.0473
      2 C         138.6967  139.5132  167.4131 C.3     1  UNL1        0.0037
      3 C         137.6143  138.5265  167.0894 C.3     1  UNL1        0.0001
      4 C         138.2935  139.2832  165.9867 C.3     1  UNL1        0.0002
      5 C         138.4529  139.5873  164.5266 C.3     1  UNL1        0.0034
      6 C         139.3075  138.7051  163.6656 C.3     1  UNL1        0.0216
      7 C         139.4669  139.0092  162.2055 C.3     1  UNL1        0.0936
      8 N         138.7716  140.1955  161.6062 N.pl3   1  UNL1       -0.2782
      9 C         137.9170  141.0777  162.4671 C.3     1  UNL1        0.0936
     10 C         137.7576  140.7736  163.9273 C.3     1  UNL1        0.0216
     11 C         138.9310  140.4996  160.1460 C.ar    1  UNL1        0.2202
     12 N         137.8143  140.1983  159.1909 N.ar    1  UNL1       -0.2112
     13 C         137.9737  140.5024  157.7308 C.ar    1  UNL1        0.1147
     14 C         139.2497  141.1078  157.2257 C.ar    1  UNL1        0.0960
     15 CL        139.4091  141.4119  155.7655 Cl      1  UNL1       -0.0790
     16 C         140.3664  141.4092  158.1808 C.ar    1  UNL1        0.1147
     17 N         140.2070  141.1050  159.6409 N.ar    1  UNL1       -0.2112
     18 C         140.4568  141.3341  167.9933 C.3     1  UNL1        0.2054
     19 O         141.3766  141.1479  166.8232 O.3     1  UNL1       -0.4754
     20 C         140.6161  143.3740  162.9870 C.ar    1  UNL1        0.0810
     21 C         141.4698  142.1407  162.9818 C.ar    1  UNL1        0.0099
     22 C         141.7233  141.3987  164.2605 C.ar    1  UNL1        0.0372
     23 C         141.1230  141.8900  165.5444 C.ar    1  UNL1        0.1408
     24 C         140.2693  143.1233  165.5496 C.ar    1  UNL1        0.0666
     25 C         140.0158  143.8653  164.2709 C.ar    1  UNL1        0.1475
     26 F         139.1621  145.0987  164.2760 F       1  UNL1       -0.2039
     27 O         139.0997  144.9074  161.5381 O.2     1  UNL1       -0.2701
     28 C         140.3626  144.1161  161.7083 C.2     1  UNL1        0.2480
     29 N         141.3719  144.0668  160.5998 N.am    1  UNL1       -0.3024
     30 H         142.2007  143.5475  160.7115 H       1  UNL1        0.1497
     31 C         141.1184  144.8089  159.3210 C.3     1  UNL1        0.0720
     32 C         141.5605  145.7976  158.2833 C.3     1  UNL1        0.0213
     33 C         140.2371  145.1055  158.1440 C.3     1  UNL1        0.0213
@<TRIPOS>BOND
     1    27    28    2
     2    28    29   am
     3    29    31    1
     4    31    32    1
     5    32    33    1
     6    28    20    1
     7    20    21   ar
     8    21    22   ar
     9    22    23   ar
    10    23    19    1
    11    19    18    1
    12    18     1    1
    13     1     2    1
    14     2     3    1
    15     3     4    1
    16     4     5    1
    17     5     6    1
    18     6     7    1
    19     7     8    1
    20     8    11    1
    21    11    12   ar
    22    12    13   ar
    23    13    14   ar
    24    14    15    1
    25    14    16   ar
    26    16    17   ar
    27     8     9    1
    28     9    10    1
    29    23    24   ar
    30    24    25   ar
    31    25    26    1
    32    33    31    1
    33    25    20   ar
    34     4     2    1
    35    10     5    1
    36    17    11   ar
    37    29    30    1
