@<TRIPOS>MOLECULE
*****
 31 34 0 0 0
SMALL
GASTEIGER

@<TRIPOS>ATOM
      1 C         139.6047  141.6499  166.0471 C.3     1  UNL1        0.0684
      2 N         136.9165  137.4471  167.5000 N.pl3   1  UNL1       -0.3426
      3 C         137.9113  138.1016  166.5878 C.ar    1  UNL1        0.1250
      4 C         138.5566  137.3093  165.4898 C.ar    1  UNL1        0.0339
      5 C         139.5513  137.9637  164.5775 C.ar    1  UNL1        0.0041
      6 C         139.9007  139.4106  164.7633 C.ar    1  UNL1        0.0152
      7 C         139.2554  140.2029  165.8613 C.ar    1  UNL1        0.0644
      8 N         138.2606  139.5485  166.7735 N.ar    1  UNL1       -0.2351
      9 H         136.6872  136.4975  167.3781 H       1  UNL1        0.1437
     10 H         136.4929  137.9672  168.2207 H       1  UNL1        0.1437
     11 C         139.2728  142.6452  164.9750 C.ar    1  UNL1        0.0026
     12 C         140.2444  143.7374  164.6390 C.ar    1  UNL1       -0.0008
     13 C         139.9125  144.7327  163.5670 C.ar    1  UNL1        0.0204
     14 C         138.6091  144.6358  162.8310 C.ar    1  UNL1        0.0989
     15 N         137.6375  143.5434  163.1670 N.ar    1  UNL1       -0.2426
     16 C         137.9694  142.5481  164.2391 C.ar    1  UNL1        0.0949
     17 C         140.2859  142.1014  167.3048 C.3     1  UNL1        0.0382
     18 C         140.9577  141.0986  168.1955 C.ar    1  UNL1       -0.0038
     19 C         140.2866  140.6500  169.4598 C.ar    1  UNL1       -0.0012
     20 C         140.9584  139.6473  170.3504 C.ar    1  UNL1        0.0204
     21 C         142.3012  139.0931  169.9767 C.ar    1  UNL1        0.0988
     22 N         142.9723  139.5417  168.7124 N.ar    1  UNL1       -0.2442
     23 C         142.3005  140.5445  167.8218 C.ar    1  UNL1        0.0774
     24 C         142.9716  140.9931  166.5575 C.ar    1  UNL1        0.0190
     25 C         143.3270  142.4381  166.3691 C.ar    1  UNL1        0.0129
     26 C         143.9981  142.8867  165.1048 C.ar    1  UNL1        0.0586
     27 CL        144.3535  144.3318  164.9163 Cl      1  UNL1       -0.0822
     28 C         144.3138  141.8903  164.0290 C.ar    1  UNL1        0.0228
     29 C         143.9585  140.4452  164.2175 C.ar    1  UNL1        0.0586
     30 CL        144.2742  139.4487  163.1416 Cl      1  UNL1       -0.0822
     31 C         143.2874  139.9966  165.4817 C.ar    1  UNL1        0.0129
@<TRIPOS>BOND
     1     2     3    1
     2     3     4   ar
     3     4     5   ar
     4     5     6   ar
     5     6     7   ar
     6     7     1    1
     7     1    17    1
     8    17    18    1
     9    18    19   ar
    10    19    20   ar
    11    20    21   ar
    12    21    22   ar
    13    22    23   ar
    14    23    24    1
    15    24    25   ar
    16    25    26   ar
    17    26    27    1
    18    26    28   ar
    19    28    29   ar
    20    29    30    1
    21    29    31   ar
    22     1    11    1
    23    11    12   ar
    24    12    13   ar
    25    13    14   ar
    26    14    15   ar
    27    15    16   ar
    28     7     8   ar
    29     8     3   ar
    30    23    18   ar
    31    31    24   ar
    32    16    11   ar
    33     2     9    1
    34     2    10    1
@<TRIPOS>MOLECULE
*****
 31 34 0 0 0
SMALL
GASTEIGER

@<TRIPOS>ATOM
      1 C         141.5080  142.4142  166.0786 C.3     1  UNL1        0.0684
      2 N         144.6002  142.8205  170.2347 N.pl3   1  UNL1       -0.3426
      3 C         143.5958  142.0464  169.4336 C.ar    1  UNL1        0.1250
      4 C         143.1331  140.7012  169.9094 C.ar    1  UNL1        0.0339
      5 C         142.1286  139.9271  169.1083 C.ar    1  UNL1        0.0041
      6 C         141.5869  140.4980  167.8314 C.ar    1  UNL1        0.0152
      7 C         142.0497  141.8432  167.3556 C.ar    1  UNL1        0.0644
      8 N         143.0541  142.6173  168.1567 N.ar    1  UNL1       -0.2351
      9 H         144.9558  142.4458  171.0728 H       1  UNL1        0.1437
     10 H         144.9040  143.7034  169.9224 H       1  UNL1        0.1437
     11 C         142.4318  142.6922  164.9300 C.ar    1  UNL1        0.0026
     12 C         142.8417  144.1017  164.6214 C.ar    1  UNL1       -0.0008
     13 C         143.7656  144.3797  163.4729 C.ar    1  UNL1        0.0204
     14 C         144.2795  143.2482  162.6329 C.ar    1  UNL1        0.0989
     15 N         143.8696  141.8386  162.9415 N.ar    1  UNL1       -0.2426
     16 C         142.9457  141.5606  164.0901 C.ar    1  UNL1        0.0949
     17 C         140.0425  142.7072  165.9503 C.3     1  UNL1        0.0382
     18 C         139.4412  142.9465  164.5970 C.ar    1  UNL1       -0.0038
     19 C         139.3365  144.3428  164.0591 C.ar    1  UNL1       -0.0012
     20 C         138.7352  144.5821  162.7059 C.ar    1  UNL1        0.0204
     21 C         138.2385  143.4251  161.8907 C.ar    1  UNL1        0.0988
     22 N         138.3432  142.0288  162.4286 N.ar    1  UNL1       -0.2442
     23 C         138.9445  141.7895  163.7818 C.ar    1  UNL1        0.0774
     24 C         139.0492  140.3932  164.3197 C.ar    1  UNL1        0.0190
     25 C         140.0271  139.4286  163.7171 C.ar    1  UNL1        0.0129
     26 C         140.1318  138.0323  164.2550 C.ar    1  UNL1        0.0586
     27 CL        141.1098  137.0677  163.6523 Cl      1  UNL1       -0.0822
     28 C         139.2586  137.6006  165.3956 C.ar    1  UNL1        0.0228
     29 C         138.2806  138.5651  165.9983 C.ar    1  UNL1        0.0586
     30 CL        137.4073  138.1334  167.1389 Cl      1  UNL1       -0.0822
     31 C         138.1760  139.9614  165.4603 C.ar    1  UNL1        0.0129
@<TRIPOS>BOND
     1     2     3    1
     2     3     4   ar
     3     4     5   ar
     4     5     6   ar
     5     6     7   ar
     6     7     1    1
     7     1    17    1
     8    17    18    1
     9    18    19   ar
    10    19    20   ar
    11    20    21   ar
    12    21    22   ar
    13    22    23   ar
    14    23    24    1
    15    24    25   ar
    16    25    26   ar
    17    26    27    1
    18    26    28   ar
    19    28    29   ar
    20    29    30    1
    21    29    31   ar
    22     1    11    1
    23    11    12   ar
    24    12    13   ar
    25    13    14   ar
    26    14    15   ar
    27    15    16   ar
    28     7     8   ar
    29     8     3   ar
    30    23    18   ar
    31    31    24   ar
    32    16    11   ar
    33     2     9    1
    34     2    10    1
@<TRIPOS>MOLECULE
*****
 31 34 0 0 0
SMALL
GASTEIGER

@<TRIPOS>ATOM
      1 C         139.7067  141.8137  165.9685 C.3     1  UNL1        0.0684
      2 N         141.1500  145.8862  163.0820 N.pl3   1  UNL1       -0.3426
      3 C         140.1141  144.8759  163.4771 C.ar    1  UNL1        0.1250
      4 C         138.7638  144.8916  162.8241 C.ar    1  UNL1        0.0339
      5 C         137.7278  143.8813  163.2192 C.ar    1  UNL1        0.0041
      6 C         138.0421  142.8553  164.2673 C.ar    1  UNL1        0.0152
      7 C         139.3924  142.8397  164.9203 C.ar    1  UNL1        0.0644
      8 N         140.4284  143.8500  164.5252 N.ar    1  UNL1       -0.2351
      9 H         140.9437  146.5596  162.3941 H       1  UNL1        0.1437
     10 H         142.0363  145.8759  163.5106 H       1  UNL1        0.1437
     11 C         139.3818  140.3696  165.7257 C.ar    1  UNL1        0.0026
     12 C         138.3540  139.6795  166.5727 C.ar    1  UNL1       -0.0008
     13 C         138.0291  138.2353  166.3299 C.ar    1  UNL1        0.0204
     14 C         138.7319  137.4814  165.2402 C.ar    1  UNL1        0.0989
     15 N         139.7597  138.1715  164.3932 N.ar    1  UNL1       -0.2426
     16 C         140.0846  139.6156  164.6359 C.ar    1  UNL1        0.0949
     17 C         140.3460  142.2318  167.2594 C.3     1  UNL1        0.0382
     18 C         140.9649  141.2024  168.1579 C.ar    1  UNL1       -0.0038
     19 C         140.2451  140.7579  169.3966 C.ar    1  UNL1       -0.0012
     20 C         140.8639  139.7285  170.2951 C.ar    1  UNL1        0.0204
     21 C         142.2026  139.1435  169.9549 C.ar    1  UNL1        0.0988
     22 N         142.9224  139.5880  168.7162 N.ar    1  UNL1       -0.2442
     23 C         142.3036  140.6174  167.8177 C.ar    1  UNL1        0.0774
     24 C         143.0234  141.0618  166.5790 C.ar    1  UNL1        0.0190
     25 C         143.3465  142.5129  166.3792 C.ar    1  UNL1        0.0129
     26 C         144.0663  142.9573  165.1405 C.ar    1  UNL1        0.0586
     27 CL        144.3893  144.4085  164.9406 Cl      1  UNL1       -0.0822
     28 C         144.4630  141.9507  164.1016 C.ar    1  UNL1        0.0228
     29 C         144.1400  140.4996  164.3015 C.ar    1  UNL1        0.0586
     30 CL        144.5367  139.4929  163.2626 Cl      1  UNL1       -0.0822
     31 C         143.4201  140.0552  165.5402 C.ar    1  UNL1        0.0129
@<TRIPOS>BOND
     1     2     3    1
     2     3     4   ar
     3     4     5   ar
     4     5     6   ar
     5     6     7   ar
     6     7     1    1
     7     1    17    1
     8    17    18    1
     9    18    19   ar
    10    19    20   ar
    11    20    21   ar
    12    21    22   ar
    13    22    23   ar
    14    23    24    1
    15    24    25   ar
    16    25    26   ar
    17    26    27    1
    18    26    28   ar
    19    28    29   ar
    20    29    30    1
    21    29    31   ar
    22     1    11    1
    23    11    12   ar
    24    12    13   ar
    25    13    14   ar
    26    14    15   ar
    27    15    16   ar
    28     7     8   ar
    29     8     3   ar
    30    23    18   ar
    31    31    24   ar
    32    16    11   ar
    33     2     9    1
    34     2    10    1
@<TRIPOS>MOLECULE
*****
 31 34 0 0 0
SMALL
GASTEIGER

@<TRIPOS>ATOM
      1 C         141.4516  142.2939  166.2203 C.3     1  UNL1        0.0684
      2 N         143.9203  145.3740  162.8411 N.pl3   1  UNL1       -0.3426
      3 C         143.6538  144.0069  163.3978 C.ar    1  UNL1        0.1250
      4 C         144.3552  142.8127  162.8217 C.ar    1  UNL1        0.0339
      5 C         144.0887  141.4456  163.3784 C.ar    1  UNL1        0.0041
      6 C         143.1209  141.2726  164.5113 C.ar    1  UNL1        0.0152
      7 C         142.4195  142.4668  165.0874 C.ar    1  UNL1        0.0644
      8 N         142.6860  143.8340  164.5306 N.ar    1  UNL1       -0.2351
      9 H         144.5555  145.4875  162.0975 H       1  UNL1        0.1437
     10 H         143.4599  146.1578  163.2192 H       1  UNL1        0.1437
     11 C         141.8923  141.6230  167.4874 C.ar    1  UNL1        0.0026
     12 C         141.2615  140.3293  167.9096 C.ar    1  UNL1       -0.0008
     13 C         141.7022  139.6583  169.1767 C.ar    1  UNL1        0.0204
     14 C         142.7737  140.2810  170.0216 C.ar    1  UNL1        0.0989
     15 N         143.4046  141.5748  169.5995 N.ar    1  UNL1       -0.2426
     16 C         142.9639  142.2458  168.3323 C.ar    1  UNL1        0.0949
     17 C         140.0432  142.7920  166.0860 C.3     1  UNL1        0.0382
     18 C         139.4569  143.0262  164.7253 C.ar    1  UNL1       -0.0038
     19 C         139.3525  144.4211  164.1836 C.ar    1  UNL1       -0.0012
     20 C         138.7663  144.6553  162.8229 C.ar    1  UNL1        0.0204
     21 C         138.2846  143.4947  162.0039 C.ar    1  UNL1        0.0988
     22 N         138.3890  142.0998  162.5456 N.ar    1  UNL1       -0.2442
     23 C         138.9752  141.8655  163.9063 C.ar    1  UNL1        0.0774
     24 C         139.0797  140.4707  164.4479 C.ar    1  UNL1        0.0190
     25 C         140.1016  139.5244  163.8910 C.ar    1  UNL1        0.0129
     26 C         140.2061  138.1295  164.4326 C.ar    1  UNL1        0.0586
     27 CL        141.2280  137.1832  163.8756 Cl      1  UNL1       -0.0822
     28 C         139.2886  137.6809  165.5313 C.ar    1  UNL1        0.0228
     29 C         138.2668  138.6272  166.0882 C.ar    1  UNL1        0.0586
     30 CL        137.3493  138.1786  167.1869 Cl      1  UNL1       -0.0822
     31 C         138.1623  140.0221  165.5466 C.ar    1  UNL1        0.0129
@<TRIPOS>BOND
     1     2     3    1
     2     3     4   ar
     3     4     5   ar
     4     5     6   ar
     5     6     7   ar
     6     7     1    1
     7     1    17    1
     8    17    18    1
     9    18    19   ar
    10    19    20   ar
    11    20    21   ar
    12    21    22   ar
    13    22    23   ar
    14    23    24    1
    15    24    25   ar
    16    25    26   ar
    17    26    27    1
    18    26    28   ar
    19    28    29   ar
    20    29    30    1
    21    29    31   ar
    22     1    11    1
    23    11    12   ar
    24    12    13   ar
    25    13    14   ar
    26    14    15   ar
    27    15    16   ar
    28     7     8   ar
    29     8     3   ar
    30    23    18   ar
    31    31    24   ar
    32    16    11   ar
    33     2     9    1
    34     2    10    1
@<TRIPOS>MOLECULE
*****
 31 34 0 0 0
SMALL
GASTEIGER

@<TRIPOS>ATOM
      1 C         141.4968  142.3035  166.2487 C.3     1  UNL1        0.0684
      2 N         143.9336  145.3671  162.8317 N.pl3   1  UNL1       -0.3426
      3 C         143.6826  144.0045  163.4064 C.ar    1  UNL1        0.1250
      4 C         144.3990  142.8111  162.8473 C.ar    1  UNL1        0.0339
      5 C         144.1479  141.4485  163.4220 C.ar    1  UNL1        0.0041
      6 C         143.1806  141.2793  164.5558 C.ar    1  UNL1        0.0152
      7 C         142.4642  142.4727  165.1149 C.ar    1  UNL1        0.0644
      8 N         142.7152  143.8353  164.5402 N.ar    1  UNL1       -0.2351
      9 H         144.5686  145.4782  162.0875 H       1  UNL1        0.1437
     10 H         143.4635  146.1504  163.1986 H       1  UNL1        0.1437
     11 C         141.9336  141.6232  167.5122 C.ar    1  UNL1        0.0026
     12 C         141.3270  140.3087  167.9046 C.ar    1  UNL1       -0.0008
     13 C         141.7638  139.6283  169.1680 C.ar    1  UNL1        0.0204
     14 C         142.8074  140.2625  170.0391 C.ar    1  UNL1        0.0989
     15 N         143.4141  141.5771  169.6467 N.ar    1  UNL1       -0.2426
     16 C         142.9773  142.2574  168.3833 C.ar    1  UNL1        0.0949
     17 C         140.0926  142.8147  166.1191 C.3     1  UNL1        0.0382
     18 C         139.5100  143.0707  164.7607 C.ar    1  UNL1       -0.0038
     19 C         139.4154  144.4732  164.2374 C.ar    1  UNL1       -0.0012
     20 C         138.8329  144.7292  162.8791 C.ar    1  UNL1        0.0204
     21 C         138.3449  143.5827  162.0441 C.ar    1  UNL1        0.0988
     22 N         138.4394  142.1801  162.5674 N.ar    1  UNL1       -0.2442
     23 C         139.0219  141.9241  163.9257 C.ar    1  UNL1        0.0774
     24 C         139.1165  140.5215  164.4491 C.ar    1  UNL1        0.0190
     25 C         138.2001  140.0670  165.5461 C.ar    1  UNL1        0.0129
     26 C         138.2946  138.6644  166.0694 C.ar    1  UNL1        0.0586
     27 CL        137.3781  138.2099  167.1665 Cl      1  UNL1       -0.0822
     28 C         139.3055  137.7164  165.4958 C.ar    1  UNL1        0.0228
     29 C         140.2220  138.1710  164.3987 C.ar    1  UNL1        0.0586
     30 CL        141.2330  137.2229  163.8250 Cl      1  UNL1       -0.0822
     31 C         140.1274  139.5735  163.8754 C.ar    1  UNL1        0.0129
@<TRIPOS>BOND
     1     2     3    1
     2     3     4   ar
     3     4     5   ar
     4     5     6   ar
     5     6     7   ar
     6     7     1    1
     7     1    17    1
     8    17    18    1
     9    18    19   ar
    10    19    20   ar
    11    20    21   ar
    12    21    22   ar
    13    22    23   ar
    14    23    24    1
    15    24    25   ar
    16    25    26   ar
    17    26    27    1
    18    26    28   ar
    19    28    29   ar
    20    29    30    1
    21    29    31   ar
    22     1    11    1
    23    11    12   ar
    24    12    13   ar
    25    13    14   ar
    26    14    15   ar
    27    15    16   ar
    28     7     8   ar
    29     8     3   ar
    30    23    18   ar
    31    31    24   ar
    32    16    11   ar
    33     2     9    1
    34     2    10    1
@<TRIPOS>MOLECULE
*****
 31 34 0 0 0
SMALL
GASTEIGER

@<TRIPOS>ATOM
      1 C         140.8772  142.5452  166.3564 C.3     1  UNL1        0.0684
      2 N         136.9611  141.2553  163.1941 N.pl3   1  UNL1       -0.3426
      3 C         137.8628  142.2971  163.7871 C.ar    1  UNL1        0.1250
      4 C         137.7080  143.7358  163.3919 C.ar    1  UNL1        0.0339
      5 C         138.6097  144.7776  163.9848 C.ar    1  UNL1        0.0041
      6 C         139.6661  144.3808  164.9730 C.ar    1  UNL1        0.0152
      7 C         139.8208  142.9421  165.3682 C.ar    1  UNL1        0.0644
      8 N         138.9191  141.9003  164.7752 N.ar    1  UNL1       -0.2351
      9 H         136.2678  141.5158  162.5455 H       1  UNL1        0.1437
     10 H         137.0627  140.3110  163.4535 H       1  UNL1        0.1437
     11 C         140.4857  141.9172  167.6612 C.ar    1  UNL1        0.0026
     12 C         140.3325  142.7680  168.8870 C.ar    1  UNL1       -0.0008
     13 C         139.9409  142.1400  170.1917 C.ar    1  UNL1        0.0204
     14 C         139.7026  140.6612  170.2706 C.ar    1  UNL1        0.0989
     15 N         139.8557  139.8103  169.0448 N.ar    1  UNL1       -0.2426
     16 C         140.2473  140.4383  167.7400 C.ar    1  UNL1        0.0949
     17 C         142.3251  142.7763  166.0399 C.3     1  UNL1        0.0382
     18 C         142.7546  143.0118  164.6221 C.ar    1  UNL1       -0.0038
     19 C         143.0613  144.4030  164.1526 C.ar    1  UNL1       -0.0012
     20 C         143.4908  144.6385  162.7349 C.ar    1  UNL1        0.0204
     21 C         143.6135  143.4828  161.7866 C.ar    1  UNL1        0.0988
     22 N         143.3068  142.0915  162.2561 N.ar    1  UNL1       -0.2442
     23 C         142.8773  141.8561  163.6739 C.ar    1  UNL1        0.0774
     24 C         142.5705  140.4648  164.1434 C.ar    1  UNL1        0.0190
     25 C         141.3943  139.7249  163.5786 C.ar    1  UNL1        0.0129
     26 C         141.0876  138.3337  164.0481 C.ar    1  UNL1        0.0586
     27 CL        139.9113  137.5938  163.4833 Cl      1  UNL1       -0.0822
     28 C         141.9570  137.6824  165.0824 C.ar    1  UNL1        0.0228
     29 C         143.1333  138.4223  165.6471 C.ar    1  UNL1        0.0586
     30 CL        144.0028  137.7710  166.6815 Cl      1  UNL1       -0.0822
     31 C         143.4400  139.8135  165.1776 C.ar    1  UNL1        0.0129
@<TRIPOS>BOND
     1     2     3    1
     2     3     4   ar
     3     4     5   ar
     4     5     6   ar
     5     6     7   ar
     6     7     1    1
     7     1    17    1
     8    17    18    1
     9    18    19   ar
    10    19    20   ar
    11    20    21   ar
    12    21    22   ar
    13    22    23   ar
    14    23    24    1
    15    24    25   ar
    16    25    26   ar
    17    26    27    1
    18    26    28   ar
    19    28    29   ar
    20    29    30    1
    21    29    31   ar
    22     1    11    1
    23    11    12   ar
    24    12    13   ar
    25    13    14   ar
    26    14    15   ar
    27    15    16   ar
    28     7     8   ar
    29     8     3   ar
    30    23    18   ar
    31    31    24   ar
    32    16    11   ar
    33     2     9    1
    34     2    10    1
@<TRIPOS>MOLECULE
*****
 31 34 0 0 0
SMALL
GASTEIGER

@<TRIPOS>ATOM
      1 C         140.1739  141.1497  166.7715 C.3     1  UNL1        0.0684
      2 N         136.6500  137.4344  167.6537 N.pl3   1  UNL1       -0.3426
      3 C         137.8053  137.9666  166.8588 C.ar    1  UNL1        0.1250
      4 C         138.3541  137.1733  165.7101 C.ar    1  UNL1        0.0339
      5 C         139.5094  137.7055  164.9151 C.ar    1  UNL1        0.0041
      6 C         140.1161  139.0310  165.2689 C.ar    1  UNL1        0.0152
      7 C         139.5673  139.8242  166.4176 C.ar    1  UNL1        0.0644
      8 N         138.4119  139.2920  167.2126 N.ar    1  UNL1       -0.2351
      9 H         136.2518  136.5644  167.4215 H       1  UNL1        0.1437
     10 H         136.2898  137.9550  168.4077 H       1  UNL1        0.1437
     11 C         141.2491  141.2280  167.8145 C.ar    1  UNL1        0.0026
     12 C         142.3448  142.2444  167.6873 C.ar    1  UNL1       -0.0008
     13 C         143.4199  142.3227  168.7304 C.ar    1  UNL1        0.0204
     14 C         143.3994  141.3845  169.9006 C.ar    1  UNL1        0.0989
     15 N         142.3036  140.3680  170.0278 N.ar    1  UNL1       -0.2426
     16 C         141.2284  140.2897  168.9847 C.ar    1  UNL1        0.0949
     17 C         139.7053  142.3969  166.0823 C.3     1  UNL1        0.0382
     18 C         139.2900  142.3468  164.6418 C.ar    1  UNL1       -0.0038
     19 C         137.8391  142.2176  164.2836 C.ar    1  UNL1       -0.0012
     20 C         137.4237  142.1676  162.8432 C.ar    1  UNL1        0.0204
     21 C         138.4592  142.2468  161.7609 C.ar    1  UNL1        0.0988
     22 N         139.9101  142.3760  162.1190 N.ar    1  UNL1       -0.2442
     23 C         140.3255  142.4260  163.5594 C.ar    1  UNL1        0.0774
     24 C         141.7763  142.5553  163.9176 C.ar    1  UNL1        0.0190
     25 C         142.6554  141.3400  163.9360 C.ar    1  UNL1        0.0129
     26 C         144.1063  141.4693  164.2941 C.ar    1  UNL1        0.0586
     27 CL        144.9854  140.2539  164.3126 Cl      1  UNL1       -0.0822
     28 C         144.6781  142.8137  164.6338 C.ar    1  UNL1        0.0228
     29 C         143.7990  144.0289  164.6153 C.ar    1  UNL1        0.0586
     30 CL        144.3708  145.3735  164.9550 Cl      1  UNL1       -0.0822
     31 C         142.3481  143.8997  164.2572 C.ar    1  UNL1        0.0129
@<TRIPOS>BOND
     1     2     3    1
     2     3     4   ar
     3     4     5   ar
     4     5     6   ar
     5     6     7   ar
     6     7     1    1
     7     1    17    1
     8    17    18    1
     9    18    19   ar
    10    19    20   ar
    11    20    21   ar
    12    21    22   ar
    13    22    23   ar
    14    23    24    1
    15    24    25   ar
    16    25    26   ar
    17    26    27    1
    18    26    28   ar
    19    28    29   ar
    20    29    30    1
    21    29    31   ar
    22     1    11    1
    23    11    12   ar
    24    12    13   ar
    25    13    14   ar
    26    14    15   ar
    27    15    16   ar
    28     7     8   ar
    29     8     3   ar
    30    23    18   ar
    31    31    24   ar
    32    16    11   ar
    33     2     9    1
    34     2    10    1
@<TRIPOS>MOLECULE
*****
 31 34 0 0 0
SMALL
GASTEIGER

@<TRIPOS>ATOM
      1 C         140.1059  141.0217  166.8360 C.3     1  UNL1        0.0684
      2 N         142.9117  138.7373  170.5655 N.pl3   1  UNL1       -0.3426
      3 C         142.6232  139.9305  169.7035 C.ar    1  UNL1        0.1250
      4 C         143.4490  141.1747  169.8443 C.ar    1  UNL1        0.0339
      5 C         143.1605  142.3680  168.9823 C.ar    1  UNL1        0.0041
      6 C         142.0462  142.3169  167.9796 C.ar    1  UNL1        0.0152
      7 C         141.2203  141.0727  167.8388 C.ar    1  UNL1        0.0644
      8 N         141.5088  139.8795  168.7008 N.ar    1  UNL1       -0.2351
      9 H         143.6431  138.7708  171.2237 H       1  UNL1        0.1437
     10 H         142.3697  137.9207  170.4731 H       1  UNL1        0.1437
     11 C         139.4377  139.7156  166.5232 C.ar    1  UNL1        0.0026
     12 C         140.0027  138.8196  165.4612 C.ar    1  UNL1       -0.0008
     13 C         139.3345  137.5136  165.1484 C.ar    1  UNL1        0.0204
     14 C         138.1014  137.1036  165.8976 C.ar    1  UNL1        0.0989
     15 N         137.5364  137.9997  166.9596 N.ar    1  UNL1       -0.2426
     16 C         138.2046  139.3057  167.2724 C.ar    1  UNL1        0.0949
     17 C         139.6597  142.2766  166.1461 C.3     1  UNL1        0.0382
     18 C         139.2282  142.2302  164.7102 C.ar    1  UNL1       -0.0038
     19 C         137.7733  142.1025  164.3680 C.ar    1  UNL1       -0.0012
     20 C         137.3417  142.0561  162.9322 C.ar    1  UNL1        0.0204
     21 C         138.3651  142.1375  161.8386 C.ar    1  UNL1        0.0988
     22 N         139.8199  142.2652  162.1807 N.ar    1  UNL1       -0.2442
     23 C         140.2515  142.3116  163.6165 C.ar    1  UNL1        0.0774
     24 C         141.7063  142.4393  163.9586 C.ar    1  UNL1        0.0190
     25 C         142.5794  141.2200  163.9896 C.ar    1  UNL1        0.0129
     26 C         144.0343  141.3477  164.3317 C.ar    1  UNL1        0.0586
     27 CL        144.9073  140.1283  164.3626 Cl      1  UNL1       -0.0822
     28 C         144.6161  142.6948  164.6429 C.ar    1  UNL1        0.0228
     29 C         143.7430  143.9141  164.6119 C.ar    1  UNL1        0.0586
     30 CL        144.3249  145.2612  164.9231 Cl      1  UNL1       -0.0822
     31 C         142.2882  143.7864  164.2698 C.ar    1  UNL1        0.0129
@<TRIPOS>BOND
     1     2     3    1
     2     3     4   ar
     3     4     5   ar
     4     5     6   ar
     5     6     7   ar
     6     7     1    1
     7     1    17    1
     8    17    18    1
     9    18    19   ar
    10    19    20   ar
    11    20    21   ar
    12    21    22   ar
    13    22    23   ar
    14    23    24    1
    15    24    25   ar
    16    25    26   ar
    17    26    27    1
    18    26    28   ar
    19    28    29   ar
    20    29    30    1
    21    29    31   ar
    22     1    11    1
    23    11    12   ar
    24    12    13   ar
    25    13    14   ar
    26    14    15   ar
    27    15    16   ar
    28     7     8   ar
    29     8     3   ar
    30    23    18   ar
    31    31    24   ar
    32    16    11   ar
    33     2     9    1
    34     2    10    1
@<TRIPOS>MOLECULE
*****
 31 34 0 0 0
SMALL
GASTEIGER

@<TRIPOS>ATOM
      1 C         142.1079  140.3791  166.4210 C.3     1  UNL1        0.0684
      2 N         143.7161  139.7415  171.3207 N.pl3   1  UNL1       -0.3426
      3 C         143.0588  140.5846  170.2685 C.ar    1  UNL1        0.1250
      4 C         142.5484  141.9521  170.6140 C.ar    1  UNL1        0.0339
      5 C         141.8911  142.7953  169.5618 C.ar    1  UNL1        0.0041
      6 C         141.7442  142.2709  168.1642 C.ar    1  UNL1        0.0152
      7 C         142.2547  140.9035  167.8187 C.ar    1  UNL1        0.0644
      8 N         142.9120  140.0603  168.8709 N.ar    1  UNL1       -0.2351
      9 H         143.8125  140.0856  172.2380 H       1  UNL1        0.1437
     10 H         144.0512  138.8440  171.0939 H       1  UNL1        0.1437
     11 C         140.9393  139.5084  166.0655 C.ar    1  UNL1        0.0026
     12 C         139.5822  139.8072  166.6303 C.ar    1  UNL1       -0.0008
     13 C         138.4136  138.9365  166.2748 C.ar    1  UNL1        0.0204
     14 C         138.6021  137.7671  165.3545 C.ar    1  UNL1        0.0989
     15 N         139.9592  137.4683  164.7897 N.ar    1  UNL1       -0.2426
     16 C         141.1278  138.3390  165.1452 C.ar    1  UNL1        0.0949
     17 C         143.1296  140.7253  165.3788 C.3     1  UNL1        0.0382
     18 C         143.2066  142.1228  164.8391 C.ar    1  UNL1       -0.0038
     19 C         144.1765  143.1026  165.4301 C.ar    1  UNL1       -0.0012
     20 C         144.2535  144.5000  164.8904 C.ar    1  UNL1        0.0204
     21 C         143.3607  144.9176  163.7598 C.ar    1  UNL1        0.0988
     22 N         142.3908  143.9378  163.1688 N.ar    1  UNL1       -0.2442
     23 C         142.3138  142.5404  163.7085 C.ar    1  UNL1        0.0774
     24 C         141.3439  141.5605  163.1175 C.ar    1  UNL1        0.0190
     25 C         141.8316  140.4929  162.1835 C.ar    1  UNL1        0.0129
     26 C         140.8618  139.5131  161.5925 C.ar    1  UNL1        0.0586
     27 CL        141.3496  138.4455  160.6585 Cl      1  UNL1       -0.0822
     28 C         139.4042  139.6009  161.9355 C.ar    1  UNL1        0.0228
     29 C         138.9165  140.6685  162.8694 C.ar    1  UNL1        0.0586
     30 CL        137.4588  140.7563  163.2124 Cl      1  UNL1       -0.0822
     31 C         139.8863  141.6483  163.4604 C.ar    1  UNL1        0.0129
@<TRIPOS>BOND
     1     2     3    1
     2     3     4   ar
     3     4     5   ar
     4     5     6   ar
     5     6     7   ar
     6     7     1    1
     7     1    17    1
     8    17    18    1
     9    18    19   ar
    10    19    20   ar
    11    20    21   ar
    12    21    22   ar
    13    22    23   ar
    14    23    24    1
    15    24    25   ar
    16    25    26   ar
    17    26    27    1
    18    26    28   ar
    19    28    29   ar
    20    29    30    1
    21    29    31   ar
    22     1    11    1
    23    11    12   ar
    24    12    13   ar
    25    13    14   ar
    26    14    15   ar
    27    15    16   ar
    28     7     8   ar
    29     8     3   ar
    30    23    18   ar
    31    31    24   ar
    32    16    11   ar
    33     2     9    1
    34     2    10    1
