@<TRIPOS>MOLECULE
*****
 42 46 0 0 0
SMALL
GASTEIGER

@<TRIPOS>ATOM
      1 C         140.9936  140.2367  165.2699 C.3     1  UNL1        0.0776
      2 C         142.5788  139.6532  163.2958 C.ar    1  UNL1        0.2211
      3 N         142.9255  139.7396  161.8390 N.ar    1  UNL1       -0.2119
      4 C         142.0337  140.4959  160.8993 C.ar    1  UNL1        0.0844
      5 C         142.3804  140.5823  159.4425 C.ar    1  UNL1        0.0193
      6 C         141.4887  141.3385  158.5030 C.ar    1  UNL1        0.0061
      7 C         140.2503  142.0084  159.0202 C.ar    1  UNL1        0.0537
      8 C         139.9035  141.9220  160.4770 C.ar    1  UNL1        0.0060
      9 C         140.7953  141.1658  161.4165 C.ar    1  UNL1        0.0177
     10 C         140.4486  141.0794  162.8734 C.ar    1  UNL1        0.0022
     11 C         141.3403  140.3231  163.8130 C.ar    1  UNL1        0.0373
     12 C         139.3585  142.7647  158.0805 C.2     1  UNL1        0.2491
     13 O         139.6474  144.2027  157.7665 O.2     1  UNL1       -0.2699
     14 N         138.1780  142.0829  157.4549 N.am    1  UNL1       -0.2726
     15 C         137.2862  142.8392  156.5152 C.3     1  UNL1        0.1152
     16 C         137.8891  140.6449  157.7688 C.3     1  UNL1        0.1152
     17 C         144.8852  139.3462  164.4517 C.3     1  UNL1        0.2542
     18 O         143.4705  138.8969  164.2355 O.3     1  UNL1       -0.4563
     19 C         139.8828  139.3369  165.7244 C.ar    1  UNL1       -0.0157
     20 C         139.6204  138.0472  165.0049 C.ar    1  UNL1       -0.0039
     21 C         138.5096  137.1474  165.4594 C.ar    1  UNL1       -0.0003
     22 C         137.6613  137.5374  166.6334 C.ar    1  UNL1       -0.0000
     23 C         137.9237  138.8272  167.3529 C.ar    1  UNL1       -0.0003
     24 C         139.0345  139.7269  166.8984 C.ar    1  UNL1       -0.0039
     25 C         141.7577  141.0500  166.2722 C.3     1  UNL1        0.1158
     26 O         142.3198  139.7919  166.8646 O.3     1  UNL1       -0.3820
     27 H         141.8482  139.0254  166.5028 H       1  UNL1        0.2107
     28 C         141.1955  142.3082  165.6797 C.ar    1  UNL1        0.0024
     29 C         139.7656  142.6833  165.9342 C.ar    1  UNL1       -0.0020
     30 C         139.2034  143.9414  165.3418 C.ar    1  UNL1       -0.0002
     31 C         140.0711  144.8245  164.4949 C.ar    1  UNL1       -0.0000
     32 C         141.5010  144.4495  164.2404 C.ar    1  UNL1       -0.0002
     33 C         142.3687  145.3326  163.3935 C.ar    1  UNL1       -0.0000
     34 C         143.7986  144.9575  163.1391 C.ar    1  UNL1       -0.0000
     35 C         144.3608  143.6994  163.7315 C.ar    1  UNL1       -0.0000
     36 C         143.4931  142.8163  164.5784 C.ar    1  UNL1       -0.0002
     37 C         142.0632  143.1913  164.8329 C.ar    1  UNL1       -0.0018
     38 C         142.5217  141.8634  167.2744 C.3     1  UNL1        0.0491
     39 C         142.5762  141.4279  168.7088 C.3     1  UNL1        0.0750
     40 N         141.3056  141.1657  169.4618 N.3     1  UNL1       -0.2702
     41 C         141.0706  139.8253  170.0927 C.3     1  UNL1        0.0897
     42 C         140.2700  142.2440  169.5838 C.3     1  UNL1        0.0897
@<TRIPOS>BOND
     1    17    18    1
     2    18     2    1
     3     2     3   ar
     4     3     4   ar
     5     4     5   ar
     6     5     6   ar
     7     6     7   ar
     8     7    12    1
     9    12    13    2
    10    12    14   am
    11    14    15    1
    12    14    16    1
    13     7     8   ar
    14     8     9   ar
    15     9    10   ar
    16    10    11   ar
    17    11     1    1
    18     1    19    1
    19    19    20   ar
    20    20    21   ar
    21    21    22   ar
    22    22    23   ar
    23    23    24   ar
    24     1    25    1
    25    25    26    1
    26    25    38    1
    27    38    39    1
    28    39    40    1
    29    40    41    1
    30    40    42    1
    31    25    28    1
    32    28    29   ar
    33    29    30   ar
    34    30    31   ar
    35    31    32   ar
    36    32    33   ar
    37    33    34   ar
    38    34    35   ar
    39    35    36   ar
    40    36    37   ar
    41    11     2   ar
    42    24    19   ar
    43    37    28   ar
    44     9     4   ar
    45    37    32   ar
    46    26    27    1
@<TRIPOS>MOLECULE
*****
 42 46 0 0 0
SMALL
GASTEIGER

@<TRIPOS>ATOM
      1 C         140.8583  140.3992  165.7259 C.3     1  UNL1        0.0776
      2 C         143.1113  139.8324  164.5628 C.ar    1  UNL1        0.2211
      3 N         143.9395  139.7270  163.3167 N.ar    1  UNL1       -0.2119
      4 C         143.3428  140.0830  161.9872 C.ar    1  UNL1        0.0844
      5 C         144.1710  139.9776  160.7411 C.ar    1  UNL1        0.0193
      6 C         143.5743  140.3336  159.4117 C.ar    1  UNL1        0.0061
      7 C         142.1495  140.7950  159.3286 C.ar    1  UNL1        0.0537
      8 C         141.3213  140.9004  160.5747 C.ar    1  UNL1        0.0060
      9 C         141.9180  140.5444  161.9041 C.ar    1  UNL1        0.0177
     10 C         141.0898  140.6498  163.1503 C.ar    1  UNL1        0.0022
     11 C         141.6865  140.2938  164.4797 C.ar    1  UNL1        0.0373
     12 C         141.5528  141.1510  157.9991 C.2     1  UNL1        0.2491
     13 O         140.8253  140.1102  157.2007 O.2     1  UNL1       -0.2699
     14 N         141.6837  142.5477  157.4682 N.am    1  UNL1       -0.2726
     15 C         141.0870  142.9038  156.1387 C.3     1  UNL1        0.1152
     16 C         142.4112  143.5885  158.2666 C.3     1  UNL1        0.1152
     17 C         143.7112  138.0495  166.3550 C.3     1  UNL1        0.2542
     18 O         143.7080  139.4764  165.8923 O.3     1  UNL1       -0.4563
     19 C         139.7767  139.3952  165.9948 C.ar    1  UNL1       -0.0157
     20 C         139.6960  138.1420  165.1746 C.ar    1  UNL1       -0.0039
     21 C         138.6144  137.1380  165.4435 C.ar    1  UNL1       -0.0003
     22 C         137.6136  137.3873  166.5326 C.ar    1  UNL1       -0.0000
     23 C         137.6944  138.6406  167.3529 C.ar    1  UNL1       -0.0003
     24 C         138.7759  139.6446  167.0840 C.ar    1  UNL1       -0.0039
     25 C         141.1117  141.5085  166.7032 C.3     1  UNL1        0.1158
     26 O         141.5930  140.5091  167.7129 O.3     1  UNL1       -0.3820
     27 H         141.3819  139.6131  167.4069 H       1  UNL1        0.2107
     28 C         140.6304  142.5080  165.6935 C.ar    1  UNL1        0.0024
     29 C         139.1636  142.6389  165.4080 C.ar    1  UNL1       -0.0020
     30 C         138.6824  143.6383  164.3984 C.ar    1  UNL1       -0.0002
     31 C         139.6678  144.5069  163.6741 C.ar    1  UNL1       -0.0000
     32 C         141.1346  144.3760  163.9596 C.ar    1  UNL1       -0.0002
     33 C         142.1200  145.2445  163.2354 C.ar    1  UNL1       -0.0000
     34 C         143.5868  145.1136  163.5209 C.ar    1  UNL1       -0.0000
     35 C         144.0681  144.1142  164.5306 C.ar    1  UNL1       -0.0000
     36 C         143.0826  143.2457  165.2548 C.ar    1  UNL1       -0.0002
     37 C         141.6159  143.3765  164.9693 C.ar    1  UNL1       -0.0018
     38 C         141.3651  142.6179  167.6805 C.3     1  UNL1        0.0491
     39 C         140.7139  142.5906  169.0315 C.3     1  UNL1        0.0750
     40 N         141.5260  142.2617  170.2490 N.3     1  UNL1       -0.2702
     41 C         141.0357  141.2304  171.2216 C.3     1  UNL1        0.0897
     42 C         142.8285  142.9642  170.4940 C.3     1  UNL1        0.0897
@<TRIPOS>BOND
     1    17    18    1
     2    18     2    1
     3     2     3   ar
     4     3     4   ar
     5     4     5   ar
     6     5     6   ar
     7     6     7   ar
     8     7    12    1
     9    12    13    2
    10    12    14   am
    11    14    15    1
    12    14    16    1
    13     7     8   ar
    14     8     9   ar
    15     9    10   ar
    16    10    11   ar
    17    11     1    1
    18     1    19    1
    19    19    20   ar
    20    20    21   ar
    21    21    22   ar
    22    22    23   ar
    23    23    24   ar
    24     1    25    1
    25    25    26    1
    26    25    38    1
    27    38    39    1
    28    39    40    1
    29    40    41    1
    30    40    42    1
    31    25    28    1
    32    28    29   ar
    33    29    30   ar
    34    30    31   ar
    35    31    32   ar
    36    32    33   ar
    37    33    34   ar
    38    34    35   ar
    39    35    36   ar
    40    36    37   ar
    41    11     2   ar
    42    24    19   ar
    43    37    28   ar
    44     9     4   ar
    45    37    32   ar
    46    26    27    1
@<TRIPOS>MOLECULE
*****
 42 46 0 0 0
SMALL
GASTEIGER

@<TRIPOS>ATOM
      1 C         140.2943  140.8859  165.4385 C.3     1  UNL1        0.0776
      2 C         139.3635  142.6521  163.7759 C.ar    1  UNL1        0.2211
      3 N         139.3170  143.2403  162.3968 N.ar    1  UNL1       -0.2119
      4 C         140.1548  142.6506  161.3012 C.ar    1  UNL1        0.0844
      5 C         140.1082  143.2388  159.9222 C.ar    1  UNL1        0.0193
      6 C         140.9460  142.6490  158.8266 C.ar    1  UNL1        0.0061
      7 C         141.8303  141.4710  159.1101 C.ar    1  UNL1        0.0537
      8 C         141.8769  140.8828  160.4892 C.ar    1  UNL1        0.0060
      9 C         141.0391  141.4726  161.5847 C.ar    1  UNL1        0.0177
     10 C         141.0856  140.8844  162.9638 C.ar    1  UNL1        0.0022
     11 C         140.2478  141.4741  164.0594 C.ar    1  UNL1        0.0373
     12 C         142.6681  140.8813  158.0145 C.2     1  UNL1        0.2491
     13 O         142.1026  139.8070  157.1335 O.2     1  UNL1       -0.2699
     14 N         144.0713  141.3658  157.7998 N.am    1  UNL1       -0.2726
     15 C         144.9091  140.7760  156.7042 C.3     1  UNL1        0.1152
     16 C         144.6369  142.4401  158.6808 C.3     1  UNL1        0.1152
     17 C         138.5339  144.7232  165.1072 C.3     1  UNL1        0.2542
     18 O         138.5257  143.2419  164.8715 O.3     1  UNL1       -0.4563
     19 C         139.4488  139.6932  165.7741 C.ar    1  UNL1       -0.0157
     20 C         138.5651  139.7174  166.9858 C.ar    1  UNL1       -0.0039
     21 C         137.7196  138.5247  167.3214 C.ar    1  UNL1       -0.0003
     22 C         137.7578  137.3079  166.4452 C.ar    1  UNL1       -0.0000
     23 C         138.6415  137.2837  165.2333 C.ar    1  UNL1       -0.0003
     24 C         139.4870  138.4764  164.8978 C.ar    1  UNL1       -0.0039
     25 C         141.1863  141.4904  166.4820 C.3     1  UNL1        0.1158
     26 O         140.0606  142.3732  166.9329 O.3     1  UNL1       -0.3820
     27 H         139.3346  142.3245  166.2914 H       1  UNL1        0.2107
     28 C         142.3120  140.6076  166.0311 C.ar    1  UNL1        0.0024
     29 C         142.3658  139.1755  166.4742 C.ar    1  UNL1       -0.0020
     30 C         143.4915  138.2927  166.0233 C.ar    1  UNL1       -0.0002
     31 C         144.5635  138.8419  165.1293 C.ar    1  UNL1       -0.0000
     32 C         144.5098  140.2739  164.6862 C.ar    1  UNL1       -0.0002
     33 C         145.5818  140.8231  163.7923 C.ar    1  UNL1       -0.0000
     34 C         145.5280  142.2552  163.3492 C.ar    1  UNL1       -0.0000
     35 C         144.4023  143.1380  163.8001 C.ar    1  UNL1       -0.0000
     36 C         143.3303  142.5888  164.6940 C.ar    1  UNL1       -0.0002
     37 C         143.3840  141.1568  165.1371 C.ar    1  UNL1       -0.0018
     38 C         142.0783  142.0949  167.5255 C.3     1  UNL1        0.0491
     39 C         141.5494  142.3555  168.9047 C.3     1  UNL1        0.0750
     40 N         140.9410  141.2374  169.6983 N.3     1  UNL1       -0.2702
     41 C         139.5179  141.3350  170.1624 C.3     1  UNL1        0.0897
     42 C         141.7556  140.0217  170.0278 C.3     1  UNL1        0.0897
@<TRIPOS>BOND
     1    17    18    1
     2    18     2    1
     3     2     3   ar
     4     3     4   ar
     5     4     5   ar
     6     5     6   ar
     7     6     7   ar
     8     7    12    1
     9    12    13    2
    10    12    14   am
    11    14    15    1
    12    14    16    1
    13     7     8   ar
    14     8     9   ar
    15     9    10   ar
    16    10    11   ar
    17    11     1    1
    18     1    19    1
    19    19    20   ar
    20    20    21   ar
    21    21    22   ar
    22    22    23   ar
    23    23    24   ar
    24     1    25    1
    25    25    26    1
    26    25    38    1
    27    38    39    1
    28    39    40    1
    29    40    41    1
    30    40    42    1
    31    25    28    1
    32    28    29   ar
    33    29    30   ar
    34    30    31   ar
    35    31    32   ar
    36    32    33   ar
    37    33    34   ar
    38    34    35   ar
    39    35    36   ar
    40    36    37   ar
    41    11     2   ar
    42    24    19   ar
    43    37    28   ar
    44     9     4   ar
    45    37    32   ar
    46    26    27    1
@<TRIPOS>MOLECULE
*****
 42 46 0 0 0
SMALL
GASTEIGER

@<TRIPOS>ATOM
      1 C         140.8801  140.8178  165.5863 C.3     1  UNL1        0.0776
      2 C         138.6625  140.0579  164.4663 C.ar    1  UNL1        0.2211
      3 N         137.8422  139.8308  163.2312 N.ar    1  UNL1       -0.2119
      4 C         138.4192  140.1368  161.8808 C.ar    1  UNL1        0.0844
      5 C         137.5989  139.9098  160.6457 C.ar    1  UNL1        0.0193
      6 C         138.1760  140.2157  159.2954 C.ar    1  UNL1        0.0061
      7 C         139.5734  140.7487  159.1803 C.ar    1  UNL1        0.0537
      8 C         140.3937  140.9757  160.4154 C.ar    1  UNL1        0.0060
      9 C         139.8166  140.6698  161.7656 C.ar    1  UNL1        0.0177
     10 C         140.6369  140.8968  163.0008 C.ar    1  UNL1        0.0022
     11 C         140.0598  140.5908  164.3511 C.ar    1  UNL1        0.0373
     12 C         140.1505  141.0547  157.8299 C.2     1  UNL1        0.2491
     13 O         140.8014  139.9666  157.0284 O.2     1  UNL1       -0.2699
     14 N         140.0766  142.4486  157.2810 N.am    1  UNL1       -0.2726
     15 C         140.6537  142.7546  155.9306 C.3     1  UNL1        0.1152
     16 C         139.4257  143.5367  158.0825 C.3     1  UNL1        0.1152
     17 C         138.0695  138.3401  166.3231 C.3     1  UNL1        0.2542
     18 O         138.0854  139.7519  165.8167 O.3     1  UNL1       -0.4563
     19 C         141.9771  139.8596  165.9447 C.ar    1  UNL1       -0.0157
     20 C         142.8944  139.3371  164.8792 C.ar    1  UNL1       -0.0039
     21 C         143.9913  138.3788  165.2376 C.ar    1  UNL1       -0.0003
     22 C         144.1710  137.9431  166.6616 C.ar    1  UNL1       -0.0000
     23 C         143.2536  138.4655  167.7272 C.ar    1  UNL1       -0.0003
     24 C         142.1567  139.4238  167.3688 C.ar    1  UNL1       -0.0039
     25 C         140.6035  142.0030  166.4630 C.3     1  UNL1        0.1158
     26 O         139.7867  141.1372  167.3758 O.3     1  UNL1       -0.3820
     27 H         139.6330  140.2774  166.9540 H       1  UNL1        0.2107
     28 C         141.4203  142.8689  165.5503 C.ar    1  UNL1        0.0024
     29 C         142.9179  142.8406  165.6310 C.ar    1  UNL1       -0.0020
     30 C         143.7347  143.7064  164.7182 C.ar    1  UNL1       -0.0002
     31 C         143.0539  144.6006  163.7247 C.ar    1  UNL1       -0.0000
     32 C         141.5564  144.6289  163.6440 C.ar    1  UNL1       -0.0002
     33 C         140.8756  145.5231  162.6505 C.ar    1  UNL1       -0.0000
     34 C         139.3780  145.5514  162.5698 C.ar    1  UNL1       -0.0000
     35 C         138.5612  144.6856  163.4826 C.ar    1  UNL1       -0.0000
     36 C         139.2420  143.7914  164.4761 C.ar    1  UNL1       -0.0002
     37 C         140.7395  143.7631  164.5568 C.ar    1  UNL1       -0.0018
     38 C         140.3268  143.1883  167.3398 C.3     1  UNL1        0.0491
     39 C         140.2946  143.0271  168.8307 C.3     1  UNL1        0.0750
     40 N         141.3835  142.2654  169.5265 N.3     1  UNL1       -0.2702
     41 C         142.8213  142.5715  169.2281 C.3     1  UNL1        0.0897
     42 C         141.0347  141.1977  170.5206 C.3     1  UNL1        0.0897
@<TRIPOS>BOND
     1    17    18    1
     2    18     2    1
     3     2     3   ar
     4     3     4   ar
     5     4     5   ar
     6     5     6   ar
     7     6     7   ar
     8     7    12    1
     9    12    13    2
    10    12    14   am
    11    14    15    1
    12    14    16    1
    13     7     8   ar
    14     8     9   ar
    15     9    10   ar
    16    10    11   ar
    17    11     1    1
    18     1    19    1
    19    19    20   ar
    20    20    21   ar
    21    21    22   ar
    22    22    23   ar
    23    23    24   ar
    24     1    25    1
    25    25    26    1
    26    25    38    1
    27    38    39    1
    28    39    40    1
    29    40    41    1
    30    40    42    1
    31    25    28    1
    32    28    29   ar
    33    29    30   ar
    34    30    31   ar
    35    31    32   ar
    36    32    33   ar
    37    33    34   ar
    38    34    35   ar
    39    35    36   ar
    40    36    37   ar
    41    11     2   ar
    42    24    19   ar
    43    37    28   ar
    44     9     4   ar
    45    37    32   ar
    46    26    27    1
@<TRIPOS>MOLECULE
*****
 42 46 0 0 0
SMALL
GASTEIGER

@<TRIPOS>ATOM
      1 C         141.6127  141.9907  164.2461 C.3     1  UNL1        0.0776
      2 C         143.5354  142.9773  162.8039 C.ar    1  UNL1        0.2211
      3 N         144.3103  143.0113  161.5200 N.ar    1  UNL1       -0.2119
      4 C         143.9372  142.0928  160.3943 C.ar    1  UNL1        0.0844
      5 C         144.7121  142.1269  159.1104 C.ar    1  UNL1        0.0193
      6 C         144.3390  141.2084  157.9847 C.ar    1  UNL1        0.0061
      7 C         143.1912  140.2558  158.1429 C.ar    1  UNL1        0.0537
      8 C         142.4163  140.2218  159.4268 C.ar    1  UNL1        0.0060
      9 C         142.7894  141.1403  160.5525 C.ar    1  UNL1        0.0177
     10 C         142.0145  141.1062  161.8365 C.ar    1  UNL1        0.0022
     11 C         142.3875  142.0247  162.9621 C.ar    1  UNL1        0.0373
     12 C         142.8181  139.3373  157.0172 C.2     1  UNL1        0.2491
     13 O         143.4614  137.9868  156.9066 O.2     1  UNL1       -0.2699
     14 N         141.8019  139.7693  156.0021 N.am    1  UNL1       -0.2726
     15 C         141.4288  138.8508  154.8763 C.3     1  UNL1        0.1152
     16 C         141.1585  141.1199  156.1126 C.3     1  UNL1        0.1152
     17 C         143.4565  145.3260  163.9119 C.3     1  UNL1        0.2542
     18 O         143.9084  143.8958  163.9297 O.3     1  UNL1       -0.4563
     19 C         140.2475  142.6084  164.3148 C.ar    1  UNL1       -0.0157
     20 C         139.1223  142.0327  163.5072 C.ar    1  UNL1       -0.0039
     21 C         137.7571  142.6504  163.5759 C.ar    1  UNL1       -0.0003
     22 C         137.5172  143.8439  164.4522 C.ar    1  UNL1       -0.0000
     23 C         138.6425  144.4197  165.2599 C.ar    1  UNL1       -0.0003
     24 C         140.0076  143.8019  165.1912 C.ar    1  UNL1       -0.0039
     25 C         142.2030  141.3389  165.4613 C.3     1  UNL1        0.1158
     26 O         142.6328  142.6819  165.9728 O.3     1  UNL1       -0.3820
     27 H         142.5250  143.3443  165.2724 H       1  UNL1        0.2107
     28 C         141.7732  139.9960  164.9498 C.ar    1  UNL1        0.0024
     29 C         142.6264  139.2633  163.9570 C.ar    1  UNL1       -0.0020
     30 C         142.1966  137.9204  163.4455 C.ar    1  UNL1       -0.0002
     31 C         140.9137  137.3099  163.9267 C.ar    1  UNL1       -0.0000
     32 C         140.0606  138.0425  164.9194 C.ar    1  UNL1       -0.0002
     33 C         138.7777  137.4320  165.4006 C.ar    1  UNL1       -0.0000
     34 C         137.9246  138.1646  166.3933 C.ar    1  UNL1       -0.0000
     35 C         138.3543  139.5076  166.9048 C.ar    1  UNL1       -0.0000
     36 C         139.6372  140.1180  166.4236 C.ar    1  UNL1       -0.0002
     37 C         140.4903  139.3855  165.4309 C.ar    1  UNL1       -0.0018
     38 C         142.7933  140.6872  166.6765 C.3     1  UNL1        0.0491
     39 C         142.9157  141.4590  167.9568 C.3     1  UNL1        0.0750
     40 N         141.7640  141.5068  168.9167 N.3     1  UNL1       -0.2702
     41 C         141.3593  140.2711  169.6647 C.3     1  UNL1        0.0897
     42 C         141.0170  142.7902  169.1287 C.3     1  UNL1        0.0897
@<TRIPOS>BOND
     1    17    18    1
     2    18     2    1
     3     2     3   ar
     4     3     4   ar
     5     4     5   ar
     6     5     6   ar
     7     6     7   ar
     8     7    12    1
     9    12    13    2
    10    12    14   am
    11    14    15    1
    12    14    16    1
    13     7     8   ar
    14     8     9   ar
    15     9    10   ar
    16    10    11   ar
    17    11     1    1
    18     1    19    1
    19    19    20   ar
    20    20    21   ar
    21    21    22   ar
    22    22    23   ar
    23    23    24   ar
    24     1    25    1
    25    25    26    1
    26    25    38    1
    27    38    39    1
    28    39    40    1
    29    40    41    1
    30    40    42    1
    31    25    28    1
    32    28    29   ar
    33    29    30   ar
    34    30    31   ar
    35    31    32   ar
    36    32    33   ar
    37    33    34   ar
    38    34    35   ar
    39    35    36   ar
    40    36    37   ar
    41    11     2   ar
    42    24    19   ar
    43    37    28   ar
    44     9     4   ar
    45    37    32   ar
    46    26    27    1
@<TRIPOS>MOLECULE
*****
 42 46 0 0 0
SMALL
GASTEIGER

@<TRIPOS>ATOM
      1 C         141.7175  142.0364  164.0282 C.3     1  UNL1        0.0776
      2 C         143.5782  142.7009  162.3411 C.ar    1  UNL1        0.2211
      3 N         144.0021  143.0479  160.9448 N.ar    1  UNL1       -0.2119
      4 C         142.9890  143.0773  159.8389 C.ar    1  UNL1        0.0844
      5 C         143.4128  143.4243  158.4425 C.ar    1  UNL1        0.0193
      6 C         142.3998  143.4537  157.3367 C.ar    1  UNL1        0.0061
      7 C         140.9629  143.1362  157.6273 C.ar    1  UNL1        0.0537
      8 C         140.5390  142.7892  159.0237 C.ar    1  UNL1        0.0060
      9 C         141.5521  142.7598  160.1295 C.ar    1  UNL1        0.0177
     10 C         141.1282  142.4128  161.5260 C.ar    1  UNL1        0.0022
     11 C         142.1413  142.3833  162.6317 C.ar    1  UNL1        0.0373
     12 C         139.9498  143.1657  156.5215 C.2     1  UNL1        0.2491
     13 O         139.5123  141.8869  155.8709 O.2     1  UNL1       -0.2699
     14 N         139.3743  144.4739  156.0662 N.am    1  UNL1       -0.2726
     15 C         138.3612  144.5033  154.9603 C.3     1  UNL1        0.1152
     16 C         139.8118  145.7527  156.7168 C.3     1  UNL1        0.1152
     17 C         145.7006  141.6621  163.4212 C.3     1  UNL1        0.2542
     18 O         144.5913  142.6714  163.4470 O.3     1  UNL1       -0.4563
     19 C         142.2529  140.8009  164.6893 C.ar    1  UNL1       -0.0157
     20 C         142.0317  139.4576  164.0598 C.ar    1  UNL1       -0.0039
     21 C         142.5671  138.2222  164.7209 C.ar    1  UNL1       -0.0003
     22 C         143.3237  138.3301  166.0116 C.ar    1  UNL1       -0.0000
     23 C         143.5449  139.6735  166.6412 C.ar    1  UNL1       -0.0003
     24 C         143.0095  140.9090  165.9801 C.ar    1  UNL1       -0.0039
     25 C         140.7583  142.9248  164.7635 C.3     1  UNL1        0.1158
     26 O         141.6325  144.1086  164.4735 O.3     1  UNL1       -0.3820
     27 H         142.4827  143.8038  164.1197 H       1  UNL1        0.2107
     28 C         139.8841  141.7409  165.0534 C.ar    1  UNL1        0.0024
     29 C         139.1573  141.0535  163.9357 C.ar    1  UNL1       -0.0020
     30 C         138.2830  139.8696  164.2257 C.ar    1  UNL1       -0.0002
     31 C         138.1356  139.3731  165.6334 C.ar    1  UNL1       -0.0000
     32 C         138.8623  140.0604  166.7511 C.ar    1  UNL1       -0.0002
     33 C         138.7148  139.5639  168.1589 C.ar    1  UNL1       -0.0000
     34 C         139.4416  140.2513  169.2766 C.ar    1  UNL1       -0.0000
     35 C         140.3158  141.4351  168.9866 C.ar    1  UNL1       -0.0000
     36 C         140.4633  141.9317  167.5789 C.ar    1  UNL1       -0.0002
     37 C         139.7366  141.2443  166.4612 C.ar    1  UNL1       -0.0018
     38 C         139.7991  143.8132  165.4987 C.3     1  UNL1        0.0491
     39 C         139.1049  144.9288  164.7752 C.3     1  UNL1        0.0750
     40 N         138.8597  144.8272  163.2988 N.3     1  UNL1       -0.2702
     41 C         139.6842  145.6387  162.3440 C.3     1  UNL1        0.0897
     42 C         137.7901  143.9140  162.7773 C.3     1  UNL1        0.0897
@<TRIPOS>BOND
     1    17    18    1
     2    18     2    1
     3     2     3   ar
     4     3     4   ar
     5     4     5   ar
     6     5     6   ar
     7     6     7   ar
     8     7    12    1
     9    12    13    2
    10    12    14   am
    11    14    15    1
    12    14    16    1
    13     7     8   ar
    14     8     9   ar
    15     9    10   ar
    16    10    11   ar
    17    11     1    1
    18     1    19    1
    19    19    20   ar
    20    20    21   ar
    21    21    22   ar
    22    22    23   ar
    23    23    24   ar
    24     1    25    1
    25    25    26    1
    26    25    38    1
    27    38    39    1
    28    39    40    1
    29    40    41    1
    30    40    42    1
    31    25    28    1
    32    28    29   ar
    33    29    30   ar
    34    30    31   ar
    35    31    32   ar
    36    32    33   ar
    37    33    34   ar
    38    34    35   ar
    39    35    36   ar
    40    36    37   ar
    41    11     2   ar
    42    24    19   ar
    43    37    28   ar
    44     9     4   ar
    45    37    32   ar
    46    26    27    1
@<TRIPOS>MOLECULE
*****
 42 46 0 0 0
SMALL
GASTEIGER

@<TRIPOS>ATOM
      1 C         141.6743  141.3365  163.4069 C.3     1  UNL1        0.0776
      2 C         143.5982  142.7859  162.4333 C.ar    1  UNL1        0.2211
      3 N         144.5218  143.1287  161.3022 N.ar    1  UNL1       -0.2119
      4 C         144.4453  142.3649  160.0135 C.ar    1  UNL1        0.0844
      5 C         145.3689  142.7077  158.8825 C.ar    1  UNL1        0.0193
      6 C         145.2923  141.9438  157.5938 C.ar    1  UNL1        0.0061
      7 C         144.2921  140.8372  157.4363 C.ar    1  UNL1        0.0537
      8 C         143.3684  140.4944  158.5673 C.ar    1  UNL1        0.0060
      9 C         143.4450  141.2582  159.8559 C.ar    1  UNL1        0.0177
     10 C         142.5213  140.9154  160.9871 C.ar    1  UNL1        0.0022
     11 C         142.5979  141.6793  162.2757 C.ar    1  UNL1        0.0373
     12 C         144.2155  140.0733  156.1475 C.2     1  UNL1        0.2491
     13 O         145.0774  138.8632  155.9406 O.2     1  UNL1       -0.2699
     14 N         143.2770  140.5195  155.0658 N.am    1  UNL1       -0.2726
     15 C         143.2005  139.7556  153.7771 C.3     1  UNL1        0.1152
     16 C         142.4151  141.7295  155.2728 C.3     1  UNL1        0.1152
     17 C         143.6966  145.0496  163.7047 C.3     1  UNL1        0.2542
     18 O         143.6748  143.5498  163.7220 O.3     1  UNL1       -0.4563
     19 C         142.1785  140.5352  164.5703 C.ar    1  UNL1       -0.0157
     20 C         142.6194  139.1158  164.3686 C.ar    1  UNL1       -0.0039
     21 C         143.1236  138.3145  165.5321 C.ar    1  UNL1       -0.0003
     22 C         143.1869  138.9327  166.8973 C.ar    1  UNL1       -0.0000
     23 C         142.7461  140.3522  167.0991 C.ar    1  UNL1       -0.0003
     24 C         142.2418  141.1535  165.9356 C.ar    1  UNL1       -0.0039
     25 C         140.2465  141.7950  163.3745 C.3     1  UNL1        0.1158
     26 O         140.7019  143.2205  163.4766 O.3     1  UNL1       -0.3820
     27 H         141.6473  143.2432  163.6926 H       1  UNL1        0.2107
     28 C         139.7910  140.3695  163.2723 C.ar    1  UNL1        0.0024
     29 C         139.9024  139.6382  161.9673 C.ar    1  UNL1       -0.0020
     30 C         139.4470  138.2127  161.8651 C.ar    1  UNL1       -0.0002
     31 C         138.8802  137.5184  163.0679 C.ar    1  UNL1       -0.0000
     32 C         138.7687  138.2496  164.3728 C.ar    1  UNL1       -0.0002
     33 C         138.2019  137.5553  165.5756 C.ar    1  UNL1       -0.0000
     34 C         138.0905  138.2866  166.8806 C.ar    1  UNL1       -0.0000
     35 C         138.5459  139.7121  166.9827 C.ar    1  UNL1       -0.0000
     36 C         139.1128  140.4064  165.7800 C.ar    1  UNL1       -0.0002
     37 C         139.2242  139.6752  164.4751 C.ar    1  UNL1       -0.0018
     38 C         138.8187  142.2535  163.3421 C.3     1  UNL1        0.0491
     39 C         138.4053  143.3541  162.4105 C.3     1  UNL1        0.0750
     40 N         138.9122  143.3718  160.9988 N.3     1  UNL1       -0.2702
     41 C         139.8901  144.4238  160.5662 C.3     1  UNL1        0.0897
     42 C         138.4414  142.3375  160.0198 C.3     1  UNL1        0.0897
@<TRIPOS>BOND
     1    17    18    1
     2    18     2    1
     3     2     3   ar
     4     3     4   ar
     5     4     5   ar
     6     5     6   ar
     7     6     7   ar
     8     7    12    1
     9    12    13    2
    10    12    14   am
    11    14    15    1
    12    14    16    1
    13     7     8   ar
    14     8     9   ar
    15     9    10   ar
    16    10    11   ar
    17    11     1    1
    18     1    19    1
    19    19    20   ar
    20    20    21   ar
    21    21    22   ar
    22    22    23   ar
    23    23    24   ar
    24     1    25    1
    25    25    26    1
    26    25    38    1
    27    38    39    1
    28    39    40    1
    29    40    41    1
    30    40    42    1
    31    25    28    1
    32    28    29   ar
    33    29    30   ar
    34    30    31   ar
    35    31    32   ar
    36    32    33   ar
    37    33    34   ar
    38    34    35   ar
    39    35    36   ar
    40    36    37   ar
    41    11     2   ar
    42    24    19   ar
    43    37    28   ar
    44     9     4   ar
    45    37    32   ar
    46    26    27    1
@<TRIPOS>MOLECULE
*****
 42 46 0 0 0
SMALL
GASTEIGER

@<TRIPOS>ATOM
      1 C         140.4175  140.7293  163.8376 C.3     1  UNL1        0.0776
      2 C         139.0284  141.1892  161.6907 C.ar    1  UNL1        0.2211
      3 N         138.9115  141.1940  160.1953 N.ar    1  UNL1       -0.2119
      4 C         140.0669  140.7437  159.3512 C.ar    1  UNL1        0.0844
      5 C         139.9501  140.7485  157.8558 C.ar    1  UNL1        0.0193
      6 C         141.1054  140.2982  157.0118 C.ar    1  UNL1        0.0061
      7 C         142.3776  139.8432  157.6632 C.ar    1  UNL1        0.0537
      8 C         142.4945  139.8383  159.1586 C.ar    1  UNL1        0.0060
      9 C         141.3392  140.2886  160.0026 C.ar    1  UNL1        0.0177
     10 C         141.4560  140.2838  161.4981 C.ar    1  UNL1        0.0022
     11 C         140.3007  140.7341  162.3421 C.ar    1  UNL1        0.0373
     12 C         143.5330  139.3929  156.8191 C.2     1  UNL1        0.2491
     13 O         143.7612  137.9299  156.5791 O.2     1  UNL1       -0.2699
     14 N         144.4602  140.4055  156.2151 N.am    1  UNL1       -0.2726
     15 C         145.6155  139.9552  155.3711 C.3     1  UNL1        0.1152
     16 C         144.2320  141.8685  156.4552 C.3     1  UNL1        0.1152
     17 C         137.6177  143.1037  162.7369 C.3     1  UNL1        0.2542
     18 O         137.8730  141.6395  162.5348 O.3     1  UNL1       -0.4563
     19 C         139.6675  139.7117  164.6452 C.ar    1  UNL1       -0.0157
     20 C         139.8633  138.2490  164.3770 C.ar    1  UNL1       -0.0039
     21 C         139.1134  137.2315  165.1846 C.ar    1  UNL1       -0.0003
     22 C         138.1676  137.6767  166.2604 C.ar    1  UNL1       -0.0000
     23 C         137.9718  139.1395  166.5286 C.ar    1  UNL1       -0.0003
     24 C         138.7217  140.1571  165.7210 C.ar    1  UNL1       -0.0039
     25 C         141.2843  141.7420  164.5254 C.3     1  UNL1        0.1158
     26 O         140.5235  142.8478  163.8559 O.3     1  UNL1       -0.3820
     27 H         139.9528  142.4757  163.1655 H       1  UNL1        0.2107
     28 C         142.0450  140.6361  165.1949 C.ar    1  UNL1        0.0024
     29 C         142.9355  139.7410  164.3850 C.ar    1  UNL1       -0.0020
     30 C         143.6962  138.6351  165.0545 C.ar    1  UNL1       -0.0002
     31 C         143.5666  138.4243  166.5339 C.ar    1  UNL1       -0.0000
     32 C         142.6761  139.3193  167.3439 C.ar    1  UNL1       -0.0002
     33 C         142.5465  139.1085  168.8233 C.ar    1  UNL1       -0.0000
     34 C         141.6560  140.0036  169.6332 C.ar    1  UNL1       -0.0000
     35 C         140.8952  141.1094  168.9637 C.ar    1  UNL1       -0.0000
     36 C         141.0249  141.3203  167.4843 C.ar    1  UNL1       -0.0002
     37 C         141.9153  140.4253  166.6743 C.ar    1  UNL1       -0.0018
     38 C         142.1510  142.7546  165.2132 C.3     1  UNL1        0.0491
     39 C         142.9169  143.7593  164.4045 C.3     1  UNL1        0.0750
     40 N         143.6494  143.3262  163.1691 N.3     1  UNL1       -0.2702
     41 C         143.0944  143.6539  161.8146 C.3     1  UNL1        0.0897
     42 C         144.9366  142.5656  163.2882 C.3     1  UNL1        0.0897
@<TRIPOS>BOND
     1    17    18    1
     2    18     2    1
     3     2     3   ar
     4     3     4   ar
     5     4     5   ar
     6     5     6   ar
     7     6     7   ar
     8     7    12    1
     9    12    13    2
    10    12    14   am
    11    14    15    1
    12    14    16    1
    13     7     8   ar
    14     8     9   ar
    15     9    10   ar
    16    10    11   ar
    17    11     1    1
    18     1    19    1
    19    19    20   ar
    20    20    21   ar
    21    21    22   ar
    22    22    23   ar
    23    23    24   ar
    24     1    25    1
    25    25    26    1
    26    25    38    1
    27    38    39    1
    28    39    40    1
    29    40    41    1
    30    40    42    1
    31    25    28    1
    32    28    29   ar
    33    29    30   ar
    34    30    31   ar
    35    31    32   ar
    36    32    33   ar
    37    33    34   ar
    38    34    35   ar
    39    35    36   ar
    40    36    37   ar
    41    11     2   ar
    42    24    19   ar
    43    37    28   ar
    44     9     4   ar
    45    37    32   ar
    46    26    27    1
@<TRIPOS>MOLECULE
*****
 42 46 0 0 0
SMALL
GASTEIGER

@<TRIPOS>ATOM
      1 C         141.4177  141.5897  163.8665 C.3     1  UNL1        0.0776
      2 C         142.7600  142.3005  161.7586 C.ar    1  UNL1        0.2211
      3 N         142.8782  142.4014  160.2667 N.ar    1  UNL1       -0.2119
      4 C         141.7721  141.8923  159.3906 C.ar    1  UNL1        0.0844
      5 C         141.8903  141.9932  157.8987 C.ar    1  UNL1        0.0193
      6 C         140.7842  141.4841  157.0227 C.ar    1  UNL1        0.0061
      7 C         139.5600  140.8741  157.6386 C.ar    1  UNL1        0.0537
      8 C         139.4419  140.7733  159.1305 C.ar    1  UNL1        0.0060
      9 C         140.5479  141.2824  160.0065 C.ar    1  UNL1        0.0177
     10 C         140.4298  141.1815  161.4985 C.ar    1  UNL1        0.0022
     11 C         141.5358  141.6906  162.3745 C.ar    1  UNL1        0.0373
     12 C         138.4540  140.3650  156.7624 C.2     1  UNL1        0.2491
     13 O         138.4586  138.9375  156.3020 O.2     1  UNL1       -0.2699
     14 N         137.3433  141.2835  156.3468 N.am    1  UNL1       -0.2726
     15 C         136.2372  140.7744  155.4707 C.3     1  UNL1        0.1152
     16 C         137.3387  142.7111  156.8072 C.3     1  UNL1        0.1152
     17 C         145.1662  142.0653  162.7099 C.3     1  UNL1        0.2542
     18 O         143.8661  142.8096  162.6347 O.3     1  UNL1       -0.4563
     19 C         142.0905  140.4662  164.5978 C.ar    1  UNL1       -0.0157
     20 C         143.1811  140.7604  165.5847 C.ar    1  UNL1       -0.0039
     21 C         143.8540  139.6368  166.3161 C.ar    1  UNL1       -0.0003
     22 C         143.4362  138.2190  166.0605 C.ar    1  UNL1       -0.0000
     23 C         142.3456  137.9248  165.0736 C.ar    1  UNL1       -0.0003
     24 C         141.6727  139.0483  164.3423 C.ar    1  UNL1       -0.0039
     25 C         140.6268  142.6124  164.6270 C.3     1  UNL1        0.1158
     26 O         141.4473  143.7060  164.0099 O.3     1  UNL1       -0.3820
     27 H         142.2113  143.3191  163.5543 H       1  UNL1        0.2107
     28 C         139.8062  141.5189  165.2442 C.ar    1  UNL1        0.0024
     29 C         138.8656  140.7165  164.3947 C.ar    1  UNL1       -0.0020
     30 C         138.0451  139.6230  165.0118 C.ar    1  UNL1       -0.0002
     31 C         138.1651  139.3318  166.4784 C.ar    1  UNL1       -0.0000
     32 C         139.1057  140.1341  167.3278 C.ar    1  UNL1       -0.0002
     33 C         139.2257  139.8429  168.7944 C.ar    1  UNL1       -0.0000
     34 C         140.1664  140.6453  169.6438 C.ar    1  UNL1       -0.0000
     35 C         140.9869  141.7388  169.0267 C.ar    1  UNL1       -0.0000
     36 C         140.8668  142.0300  167.5601 C.ar    1  UNL1       -0.0002
     37 C         139.9263  141.2277  166.7107 C.ar    1  UNL1       -0.0018
     38 C         139.8358  143.6351  165.3876 C.3     1  UNL1        0.0491
     39 C         139.1792  144.7696  164.6584 C.3     1  UNL1        0.0750
     40 N         138.7939  144.6120  163.2173 N.3     1  UNL1       -0.2702
     41 C         139.4636  145.4468  162.1663 C.3     1  UNL1        0.0897
     42 C         137.7390  143.6195  162.8272 C.3     1  UNL1        0.0897
@<TRIPOS>BOND
     1    17    18    1
     2    18     2    1
     3     2     3   ar
     4     3     4   ar
     5     4     5   ar
     6     5     6   ar
     7     6     7   ar
     8     7    12    1
     9    12    13    2
    10    12    14   am
    11    14    15    1
    12    14    16    1
    13     7     8   ar
    14     8     9   ar
    15     9    10   ar
    16    10    11   ar
    17    11     1    1
    18     1    19    1
    19    19    20   ar
    20    20    21   ar
    21    21    22   ar
    22    22    23   ar
    23    23    24   ar
    24     1    25    1
    25    25    26    1
    26    25    38    1
    27    38    39    1
    28    39    40    1
    29    40    41    1
    30    40    42    1
    31    25    28    1
    32    28    29   ar
    33    29    30   ar
    34    30    31   ar
    35    31    32   ar
    36    32    33   ar
    37    33    34   ar
    38    34    35   ar
    39    35    36   ar
    40    36    37   ar
    41    11     2   ar
    42    24    19   ar
    43    37    28   ar
    44     9     4   ar
    45    37    32   ar
    46    26    27    1
