@<TRIPOS>MOLECULE
*****
 34 38 0 0 0
SMALL
GASTEIGER

@<TRIPOS>ATOM
      1 N         143.0372  139.0817  163.0438 N.3     1  UNL1       -0.2712
      2 C         144.2479  139.8645  162.6296 C.3     1  UNL1        0.0738
      3 C         144.4206  140.9975  163.5973 C.3     1  UNL1        0.0372
      4 C         145.2755  142.1815  163.9394 C.3     1  UNL1        0.0245
      5 C         144.7001  142.8308  165.1632 C.3     1  UNL1        0.0909
      6 N         143.4894  142.0479  165.5773 N.pl3   1  UNL1       -0.3077
      7 C         143.3167  140.9149  164.6096 C.3     1  UNL1        0.0901
      8 C         142.4617  139.7308  164.2675 C.3     1  UNL1        0.0921
      9 C         142.6065  142.3457  166.7528 C.ar    1  UNL1        0.0478
     10 C         143.1790  142.3480  168.1393 C.ar    1  UNL1        0.0145
     11 C         142.2962  142.6458  169.3148 C.ar    1  UNL1        0.0051
     12 C         140.8408  142.9414  169.1039 C.ar    1  UNL1        0.0715
     13 C         140.2682  142.9391  167.7174 C.ar    1  UNL1        0.0051
     14 C         141.1511  142.6413  166.5419 C.ar    1  UNL1        0.0145
     15 C         139.9579  143.2392  170.2794 C.3     1  UNL1        0.4186
     16 F         139.0751  143.5371  171.4549 F       1  UNL1       -0.1659
     17 F         140.2291  144.7050  170.1117 F       1  UNL1       -0.1659
     18 F         139.6868  141.7735  170.4471 F       1  UNL1       -0.1659
     19 C         142.4969  137.8635  162.3552 C.3     1  UNL1        0.0731
     20 C         141.1910  137.2708  162.7947 C.3     1  UNL1        0.0294
     21 C         139.9150  137.6873  162.1250 C.3     1  UNL1        0.0666
     22 S         138.7745  138.2133  162.9451 S.3     1  UNL1       -0.0756
     23 C         140.1626  140.7138  161.3734 C.3     1  UNL1        0.1353
     24 N         139.4059  140.7956  162.6660 N.ar    1  UNL1       -0.2767
     25 C         138.7678  139.6463  163.3884 C.ar    1  UNL1        0.1942
     26 N         138.1219  140.1814  164.6319 N.ar    1  UNL1       -0.1208
     27 N         138.3607  141.6616  164.6780 N.ar    1  UNL1       -0.1122
     28 C         139.1543  142.0412  163.4630 C.ar    1  UNL1        0.2223
     29 N         139.6153  143.4237  163.1075 N.pl3   1  UNL1       -0.2731
     30 C         141.0691  143.7787  163.2088 C.3     1  UNL1        0.1257
     31 C         141.5301  145.1612  162.8533 C.3     1  UNL1        0.1637
     32 O         140.5371  146.1885  162.3965 O.3     1  UNL1       -0.3501
     33 C         139.0832  145.8335  162.2952 C.3     1  UNL1        0.1637
     34 C         138.6223  144.4510  162.6508 C.3     1  UNL1        0.1257
@<TRIPOS>BOND
     1    23    24    1
     2    24    25   ar
     3    25    22    1
     4    22    21    1
     5    21    20    1
     6    20    19    1
     7    19     1    1
     8     1     2    1
     9     2     3    1
    10     3     4    1
    11     4     5    1
    12     5     6    1
    13     6     9    1
    14     9    10   ar
    15    10    11   ar
    16    11    12   ar
    17    12    15    1
    18    15    16    1
    19    15    17    1
    20    15    18    1
    21    12    13   ar
    22    13    14   ar
    23     6     7    1
    24     7     8    1
    25    25    26   ar
    26    26    27   ar
    27    27    28   ar
    28    28    29    1
    29    29    30    1
    30    30    31    1
    31    31    32    1
    32    32    33    1
    33    33    34    1
    34    28    24   ar
    35    34    29    1
    36     8     1    1
    37     7     3    1
    38    14     9   ar
@<TRIPOS>MOLECULE
*****
 34 38 0 0 0
SMALL
GASTEIGER

@<TRIPOS>ATOM
      1 N         142.4695  143.4708  161.4324 N.3     1  UNL1       -0.2712
      2 C         143.2482  142.4098  160.7129 C.3     1  UNL1        0.0738
      3 C         143.6706  141.3817  161.7202 C.3     1  UNL1        0.0372
      4 C         144.4130  140.0904  161.8981 C.3     1  UNL1        0.0245
      5 C         144.3542  139.7180  163.3499 C.3     1  UNL1        0.0909
      6 N         143.5754  140.7792  164.0694 N.pl3   1  UNL1       -0.3077
      7 C         143.1529  141.8073  163.0621 C.3     1  UNL1        0.0901
      8 C         142.4106  143.0985  162.8843 C.3     1  UNL1        0.0921
      9 C         143.2722  140.8073  165.5382 C.ar    1  UNL1        0.0478
     10 C         143.2920  142.1089  166.2833 C.ar    1  UNL1        0.0145
     11 C         142.9889  142.1369  167.7521 C.ar    1  UNL1        0.0051
     12 C         142.6660  140.8633  168.4757 C.ar    1  UNL1        0.0715
     13 C         142.6462  139.5616  167.7306 C.ar    1  UNL1        0.0051
     14 C         142.9493  139.5336  166.2618 C.ar    1  UNL1        0.0145
     15 C         142.3628  140.8914  169.9445 C.3     1  UNL1        0.4186
     16 F         142.0597  140.9194  171.4133 F       1  UNL1       -0.1659
     17 F         142.5400  142.3809  169.9527 F       1  UNL1       -0.1659
     18 F         142.1856  139.4019  169.9364 F       1  UNL1       -0.1659
     19 C         141.8571  144.6902  160.8094 C.3     1  UNL1        0.0731
     20 C         140.3719  144.8937  160.8617 C.3     1  UNL1        0.0294
     21 C         139.7703  145.7577  161.9301 C.3     1  UNL1        0.0666
     22 S         138.9109  145.1441  162.9954 S.3     1  UNL1       -0.0756
     23 C         139.7290  142.7817  165.0928 C.3     1  UNL1        0.1353
     24 N         138.8875  142.6157  163.8623 N.ar    1  UNL1       -0.2767
     25 C         138.5115  143.7016  162.8982 C.ar    1  UNL1        0.1942
     26 N         137.6658  143.0916  161.8198 N.ar    1  UNL1       -0.1208
     27 N         137.5193  141.6288  162.1174 N.ar    1  UNL1       -0.1122
     28 C         138.2743  141.3346  163.3797 C.ar    1  UNL1        0.2223
     29 N         138.3950  139.9946  164.0430 N.pl3   1  UNL1       -0.2731
     30 C         138.1217  139.8573  165.5115 C.3     1  UNL1        0.1257
     31 C         138.2424  138.5173  166.1748 C.3     1  UNL1        0.1637
     32 O         138.6363  137.3146  165.3694 O.3     1  UNL1       -0.3501
     33 C         138.9095  137.4519  163.9009 C.3     1  UNL1        0.1637
     34 C         138.7888  138.7920  163.2377 C.3     1  UNL1        0.1257
@<TRIPOS>BOND
     1    23    24    1
     2    24    25   ar
     3    25    22    1
     4    22    21    1
     5    21    20    1
     6    20    19    1
     7    19     1    1
     8     1     2    1
     9     2     3    1
    10     3     4    1
    11     4     5    1
    12     5     6    1
    13     6     9    1
    14     9    10   ar
    15    10    11   ar
    16    11    12   ar
    17    12    15    1
    18    15    16    1
    19    15    17    1
    20    15    18    1
    21    12    13   ar
    22    13    14   ar
    23     6     7    1
    24     7     8    1
    25    25    26   ar
    26    26    27   ar
    27    27    28   ar
    28    28    29    1
    29    29    30    1
    30    30    31    1
    31    31    32    1
    32    32    33    1
    33    33    34    1
    34    28    24   ar
    35    34    29    1
    36     8     1    1
    37     7     3    1
    38    14     9   ar
@<TRIPOS>MOLECULE
*****
 34 38 0 0 0
SMALL
GASTEIGER

@<TRIPOS>ATOM
      1 N         142.6659  138.1020  162.6578 N.3     1  UNL1       -0.2712
      2 C         141.2901  137.5046  162.6436 C.3     1  UNL1        0.0738
      3 C         140.5680  137.9747  163.8714 C.3     1  UNL1        0.0372
      4 C         139.2714  137.8960  164.6215 C.3     1  UNL1        0.0245
      5 C         139.3995  138.7353  165.8581 C.3     1  UNL1        0.0909
      6 N         140.7754  139.3328  165.8722 N.pl3   1  UNL1       -0.3077
      7 C         141.4975  138.8626  164.6444 C.3     1  UNL1        0.0901
      8 C         142.7942  138.9413  163.8943 C.3     1  UNL1        0.0921
      9 C         141.3315  140.2408  166.9287 C.ar    1  UNL1        0.0478
     10 C         142.4419  141.1914  166.5921 C.ar    1  UNL1        0.0145
     11 C         142.9980  142.0994  167.6486 C.ar    1  UNL1        0.0051
     12 C         142.4437  142.0570  169.0417 C.ar    1  UNL1        0.0715
     13 C         141.3332  141.1064  169.3784 C.ar    1  UNL1        0.0051
     14 C         140.7771  140.1983  168.3219 C.ar    1  UNL1        0.0145
     15 C         142.9998  142.9650  170.0982 C.3     1  UNL1        0.4186
     16 F         143.5558  143.8731  171.1547 F       1  UNL1       -0.1659
     17 F         144.3398  142.3053  169.9600 F       1  UNL1       -0.1659
     18 F         141.6598  143.6248  170.2364 F       1  UNL1       -0.1659
     19 C         143.7273  137.8962  161.6179 C.3     1  UNL1        0.0731
     20 C         143.5961  138.5478  160.2732 C.3     1  UNL1        0.0294
     21 C         142.5309  138.0931  159.3200 C.3     1  UNL1        0.0666
     22 S         141.4690  139.0518  158.8692 S.3     1  UNL1       -0.0756
     23 C         141.7161  141.7098  160.7462 C.3     1  UNL1        0.1353
     24 N         140.5526  140.7640  160.7058 N.ar    1  UNL1       -0.2767
     25 C         140.4390  139.5423  159.8430 C.ar    1  UNL1        0.1942
     26 N         139.1145  138.8971  160.1250 N.ar    1  UNL1       -0.1208
     27 N         138.4095  139.7201  161.1622 N.ar    1  UNL1       -0.1122
     28 C         139.2982  140.8740  161.5211 C.ar    1  UNL1        0.2223
     29 N         138.9872  141.9490  162.5200 N.pl3   1  UNL1       -0.2731
     30 C         139.6463  141.9342  163.8674 C.3     1  UNL1        0.1257
     31 C         139.3353  143.0092  164.8662 C.3     1  UNL1        0.1637
     32 O         138.3652  144.0989  164.5176 O.3     1  UNL1       -0.3501
     33 C         137.7061  144.1137  163.1702 C.3     1  UNL1        0.1637
     34 C         138.0172  143.0386  162.1714 C.3     1  UNL1        0.1257
@<TRIPOS>BOND
     1    23    24    1
     2    24    25   ar
     3    25    22    1
     4    22    21    1
     5    21    20    1
     6    20    19    1
     7    19     1    1
     8     1     2    1
     9     2     3    1
    10     3     4    1
    11     4     5    1
    12     5     6    1
    13     6     9    1
    14     9    10   ar
    15    10    11   ar
    16    11    12   ar
    17    12    15    1
    18    15    16    1
    19    15    17    1
    20    15    18    1
    21    12    13   ar
    22    13    14   ar
    23     6     7    1
    24     7     8    1
    25    25    26   ar
    26    26    27   ar
    27    27    28   ar
    28    28    29    1
    29    29    30    1
    30    30    31    1
    31    31    32    1
    32    32    33    1
    33    33    34    1
    34    28    24   ar
    35    34    29    1
    36     8     1    1
    37     7     3    1
    38    14     9   ar
@<TRIPOS>MOLECULE
*****
 34 38 0 0 0
SMALL
GASTEIGER

@<TRIPOS>ATOM
      1 N         142.1724  138.1704  162.5348 N.3     1  UNL1       -0.2712
      2 C         140.7863  137.5980  162.5678 C.3     1  UNL1        0.0738
      3 C         140.1236  138.0611  163.8312 C.3     1  UNL1        0.0372
      4 C         138.8574  137.9936  164.6325 C.3     1  UNL1        0.0245
      5 C         139.0512  138.8105  165.8756 C.3     1  UNL1        0.0909
      6 N         140.4374  139.3829  165.8425 N.pl3   1  UNL1       -0.3077
      7 C         141.1001  138.9198  164.5791 C.3     1  UNL1        0.0901
      8 C         142.3664  138.9873  163.7778 C.3     1  UNL1        0.0921
      9 C         141.0527  140.2638  166.8891 C.ar    1  UNL1        0.0478
     10 C         140.5577  141.6676  167.0735 C.ar    1  UNL1        0.0145
     11 C         141.1730  142.5485  168.1201 C.ar    1  UNL1        0.0051
     12 C         142.2834  142.0255  168.9824 C.ar    1  UNL1        0.0715
     13 C         142.7785  140.6216  168.7980 C.ar    1  UNL1        0.0051
     14 C         142.1632  139.7407  167.7514 C.ar    1  UNL1        0.0145
     15 C         142.8987  142.9064  170.0290 C.3     1  UNL1        0.4186
     16 F         143.5140  143.7873  171.0756 F       1  UNL1       -0.1659
     17 F         144.1635  142.1029  169.9617 F       1  UNL1       -0.1659
     18 F         141.6339  143.7100  170.0963 F       1  UNL1       -0.1659
     19 C         143.1866  137.9625  161.4493 C.3     1  UNL1        0.0731
     20 C         143.0316  138.6656  160.1334 C.3     1  UNL1        0.0294
     21 C         143.9732  139.7714  159.7584 C.3     1  UNL1        0.0666
     22 S         143.5264  141.2004  159.8502 S.3     1  UNL1       -0.0756
     23 C         140.4008  141.8837  160.4930 C.3     1  UNL1        0.1353
     24 N         141.5525  142.0506  161.4395 N.ar    1  UNL1       -0.2767
     25 C         142.9892  141.7365  161.1440 C.ar    1  UNL1        0.1942
     26 N         143.7944  142.0526  162.3695 N.ar    1  UNL1       -0.1208
     27 N         142.8553  142.5621  163.4224 N.ar    1  UNL1       -0.1122
     28 C         141.4697  142.5608  162.8477 C.ar    1  UNL1        0.2223
     29 N         140.2208  142.9938  163.5566 N.pl3   1  UNL1       -0.2731
     30 C         139.0768  142.0363  163.7129 C.3     1  UNL1        0.1257
     31 C         137.8278  142.4693  164.4218 C.3     1  UNL1        0.1637
     32 O         137.7229  143.8599  164.9744 O.3     1  UNL1       -0.3501
     33 C         138.8669  144.8174  164.8182 C.3     1  UNL1        0.1637
     34 C         140.1159  144.3843  164.1092 C.3     1  UNL1        0.1257
@<TRIPOS>BOND
     1    23    24    1
     2    24    25   ar
     3    25    22    1
     4    22    21    1
     5    21    20    1
     6    20    19    1
     7    19     1    1
     8     1     2    1
     9     2     3    1
    10     3     4    1
    11     4     5    1
    12     5     6    1
    13     6     9    1
    14     9    10   ar
    15    10    11   ar
    16    11    12   ar
    17    12    15    1
    18    15    16    1
    19    15    17    1
    20    15    18    1
    21    12    13   ar
    22    13    14   ar
    23     6     7    1
    24     7     8    1
    25    25    26   ar
    26    26    27   ar
    27    27    28   ar
    28    28    29    1
    29    29    30    1
    30    30    31    1
    31    31    32    1
    32    32    33    1
    33    33    34    1
    34    28    24   ar
    35    34    29    1
    36     8     1    1
    37     7     3    1
    38    14     9   ar
@<TRIPOS>MOLECULE
*****
 34 38 0 0 0
SMALL
GASTEIGER

@<TRIPOS>ATOM
      1 N         142.8429  143.9748  161.8036 N.3     1  UNL1       -0.2712
      2 C         144.0363  144.3792  162.6175 C.3     1  UNL1        0.0738
      3 C         143.8998  143.7628  163.9781 C.3     1  UNL1        0.0372
      4 C         144.5530  143.6318  165.3221 C.3     1  UNL1        0.0245
      5 C         143.6790  142.7655  166.1798 C.3     1  UNL1        0.0909
      6 N         142.4856  142.3611  165.3659 N.pl3   1  UNL1       -0.3077
      7 C         142.6221  142.9775  164.0053 C.3     1  UNL1        0.0901
      8 C         141.9689  143.1086  162.6613 C.3     1  UNL1        0.0921
      9 C         141.3543  141.4928  165.8311 C.ar    1  UNL1        0.0478
     10 C         140.0220  141.5659  165.1458 C.ar    1  UNL1        0.0145
     11 C         138.8908  140.6976  165.6110 C.ar    1  UNL1        0.0051
     12 C         139.0918  139.7563  166.7614 C.ar    1  UNL1        0.0715
     13 C         140.4242  139.6832  167.4467 C.ar    1  UNL1        0.0051
     14 C         141.5554  140.5515  166.9815 C.ar    1  UNL1        0.0145
     15 C         137.9606  138.8880  167.2265 C.3     1  UNL1        0.4186
     16 F         136.8294  138.0197  167.6917 F       1  UNL1       -0.1659
     17 F         138.1020  139.4458  168.6117 F       1  UNL1       -0.1659
     18 F         137.8192  138.3301  165.8413 F       1  UNL1       -0.1659
     19 C         142.5713  144.3678  160.3817 C.3     1  UNL1        0.0731
     20 C         141.2738  145.0284  160.0210 C.3     1  UNL1        0.0294
     21 C         140.6472  144.7701  158.6828 C.3     1  UNL1        0.0666
     22 S         139.5884  143.7172  158.5411 S.3     1  UNL1       -0.0756
     23 C         141.1073  140.9482  159.3627 C.3     1  UNL1        0.1353
     24 N         139.9446  141.5633  160.0836 N.ar    1  UNL1       -0.2767
     25 C         139.2464  142.8361  159.7059 C.ar    1  UNL1        0.1942
     26 N         138.1461  143.0731  160.6976 N.ar    1  UNL1       -0.1208
     27 N         138.1643  141.9468  161.6881 N.ar    1  UNL1       -0.1122
     28 C         139.2758  141.0136  161.3087 C.ar    1  UNL1        0.2223
     29 N         139.6524  139.7524  162.0280 N.pl3   1  UNL1       -0.2731
     30 C         141.0848  139.4957  162.3920 C.3     1  UNL1        0.1257
     31 C         141.4614  138.2344  163.1113 C.3     1  UNL1        0.1637
     32 O         140.4055  137.2299  163.4666 O.3     1  UNL1       -0.3501
     33 C         138.9732  137.4866  163.1026 C.3     1  UNL1        0.1637
     34 C         138.5966  138.7479  162.3832 C.3     1  UNL1        0.1257
@<TRIPOS>BOND
     1    23    24    1
     2    24    25   ar
     3    25    22    1
     4    22    21    1
     5    21    20    1
     6    20    19    1
     7    19     1    1
     8     1     2    1
     9     2     3    1
    10     3     4    1
    11     4     5    1
    12     5     6    1
    13     6     9    1
    14     9    10   ar
    15    10    11   ar
    16    11    12   ar
    17    12    15    1
    18    15    16    1
    19    15    17    1
    20    15    18    1
    21    12    13   ar
    22    13    14   ar
    23     6     7    1
    24     7     8    1
    25    25    26   ar
    26    26    27   ar
    27    27    28   ar
    28    28    29    1
    29    29    30    1
    30    30    31    1
    31    31    32    1
    32    32    33    1
    33    33    34    1
    34    28    24   ar
    35    34    29    1
    36     8     1    1
    37     7     3    1
    38    14     9   ar
@<TRIPOS>MOLECULE
*****
 34 38 0 0 0
SMALL
GASTEIGER

@<TRIPOS>ATOM
      1 N         143.1169  142.3553  161.6322 N.3     1  UNL1       -0.2712
      2 C         144.0246  141.1612  161.6159 C.3     1  UNL1        0.0738
      3 C         144.0159  140.5537  162.9873 C.3     1  UNL1        0.0372
      4 C         144.5716  139.4403  163.8249 C.3     1  UNL1        0.0245
      5 C         144.0020  139.5707  165.2064 C.3     1  UNL1        0.0909
      6 N         143.0943  140.7649  165.2227 N.pl3   1  UNL1       -0.3077
      7 C         143.1030  141.3724  163.8512 C.3     1  UNL1        0.0901
      8 C         142.5473  142.4858  163.0137 C.3     1  UNL1        0.0921
      9 C         142.3149  141.2639  166.4031 C.ar    1  UNL1        0.0478
     10 C         142.5886  140.7113  167.7705 C.ar    1  UNL1        0.0145
     11 C         141.8092  141.2102  168.9509 C.ar    1  UNL1        0.0051
     12 C         140.7560  142.2618  168.7641 C.ar    1  UNL1        0.0715
     13 C         140.4822  142.8145  167.3967 C.ar    1  UNL1        0.0051
     14 C         141.2617  142.3155  166.2162 C.ar    1  UNL1        0.0145
     15 C         139.9766  142.7608  169.9445 C.3     1  UNL1        0.4186
     16 F         139.1971  143.2598  171.1250 F       1  UNL1       -0.1659
     17 F         139.3068  141.4243  170.0672 F       1  UNL1       -0.1659
     18 F         140.6464  144.0973  169.8218 F       1  UNL1       -0.1659
     19 C         142.8293  143.2601  160.4709 C.3     1  UNL1        0.0731
     20 C         141.8160  144.3575  160.6081 C.3     1  UNL1        0.0294
     21 C         140.7131  144.4905  159.6000 C.3     1  UNL1        0.0666
     22 S         139.6187  143.4662  159.5462 S.3     1  UNL1       -0.0756
     23 C         140.2648  140.5161  160.7826 C.3     1  UNL1        0.1353
     24 N         139.3546  141.5447  161.3855 N.ar    1  UNL1       -0.2767
     25 C         139.0576  142.9008  160.8171 C.ar    1  UNL1        0.1942
     26 N         138.1010  143.5921  161.7429 N.ar    1  UNL1       -0.1208
     27 N         137.8068  142.6633  162.8834 N.ar    1  UNL1       -0.1122
     28 C         138.5815  141.3979  162.6626 C.ar    1  UNL1        0.2223
     29 N         138.5829  140.1968  163.5610 N.pl3   1  UNL1       -0.2731
     30 C         138.8496  138.8348  162.9919 C.3     1  UNL1        0.1257
     31 C         138.8510  137.6336  163.8903 C.3     1  UNL1        0.1637
     32 O         138.5856  137.7945  165.3579 O.3     1  UNL1       -0.3501
     33 C         138.3190  139.1565  165.9271 C.3     1  UNL1        0.1637
     34 C         138.3176  140.3576  165.0285 C.3     1  UNL1        0.1257
@<TRIPOS>BOND
     1    23    24    1
     2    24    25   ar
     3    25    22    1
     4    22    21    1
     5    21    20    1
     6    20    19    1
     7    19     1    1
     8     1     2    1
     9     2     3    1
    10     3     4    1
    11     4     5    1
    12     5     6    1
    13     6     9    1
    14     9    10   ar
    15    10    11   ar
    16    11    12   ar
    17    12    15    1
    18    15    16    1
    19    15    17    1
    20    15    18    1
    21    12    13   ar
    22    13    14   ar
    23     6     7    1
    24     7     8    1
    25    25    26   ar
    26    26    27   ar
    27    27    28   ar
    28    28    29    1
    29    29    30    1
    30    30    31    1
    31    31    32    1
    32    32    33    1
    33    33    34    1
    34    28    24   ar
    35    34    29    1
    36     8     1    1
    37     7     3    1
    38    14     9   ar
@<TRIPOS>MOLECULE
*****
 34 38 0 0 0
SMALL
GASTEIGER

@<TRIPOS>ATOM
      1 N         141.1292  138.5615  158.1071 N.3     1  UNL1       -0.2712
      2 C         142.6209  138.6289  158.2494 C.3     1  UNL1        0.0738
      3 C         142.9475  138.6240  159.7134 C.3     1  UNL1        0.0372
      4 C         144.0714  138.6627  160.7061 C.3     1  UNL1        0.0245
      5 C         143.4761  138.6163  162.0822 C.3     1  UNL1        0.0909
      6 N         141.9844  138.5489  161.9399 N.pl3   1  UNL1       -0.3077
      7 C         141.6577  138.5537  160.4759 C.3     1  UNL1        0.0901
      8 C         140.5339  138.5150  159.4831 C.3     1  UNL1        0.0921
      9 C         140.9933  138.4875  163.0642 C.ar    1  UNL1        0.0478
     10 C         139.6884  137.7724  162.8755 C.ar    1  UNL1        0.0145
     11 C         138.6973  137.7110  163.9998 C.ar    1  UNL1        0.0051
     12 C         139.0112  138.3647  165.3128 C.ar    1  UNL1        0.0715
     13 C         140.3162  139.0798  165.5016 C.ar    1  UNL1        0.0051
     14 C         141.3073  139.1412  164.3773 C.ar    1  UNL1        0.0145
     15 C         138.0202  138.3033  166.4371 C.3     1  UNL1        0.4186
     16 F         137.0291  138.2419  167.5614 F       1  UNL1       -0.1659
     17 F         138.0921  139.7945  166.5819 F       1  UNL1       -0.1659
     18 F         137.9482  136.8120  166.2922 F       1  UNL1       -0.1659
     19 C         140.3666  138.5437  156.8155 C.3     1  UNL1        0.0731
     20 C         139.2210  139.4895  156.6079 C.3     1  UNL1        0.0294
     21 C         139.3023  140.8927  157.1319 C.3     1  UNL1        0.0666
     22 S         138.3054  141.3742  158.1439 S.3     1  UNL1       -0.0756
     23 C         138.1249  140.8720  161.3633 C.3     1  UNL1        0.1353
     24 N         138.6444  142.1085  160.6916 N.ar    1  UNL1       -0.2767
     25 C         138.7273  142.3394  159.2118 C.ar    1  UNL1        0.1942
     26 N         139.3063  143.7048  158.9874 N.ar    1  UNL1       -0.1208
     27 N         139.5812  144.3178  160.3285 N.ar    1  UNL1       -0.1122
     28 C         139.1721  143.3313  161.3819 C.ar    1  UNL1        0.2223
     29 N         139.2730  143.5322  162.8649 N.pl3   1  UNL1       -0.2731
     30 C         140.3991  142.9048  163.6319 C.3     1  UNL1        0.1257
     31 C         140.5000  143.1057  165.1149 C.3     1  UNL1        0.1637
     32 O         139.4748  143.9342  165.8310 O.3     1  UNL1       -0.3501
     33 C         138.3487  144.5617  165.0640 C.3     1  UNL1        0.1637
     34 C         138.2479  144.3607  163.5809 C.3     1  UNL1        0.1257
@<TRIPOS>BOND
     1    23    24    1
     2    24    25   ar
     3    25    22    1
     4    22    21    1
     5    21    20    1
     6    20    19    1
     7    19     1    1
     8     1     2    1
     9     2     3    1
    10     3     4    1
    11     4     5    1
    12     5     6    1
    13     6     9    1
    14     9    10   ar
    15    10    11   ar
    16    11    12   ar
    17    12    15    1
    18    15    16    1
    19    15    17    1
    20    15    18    1
    21    12    13   ar
    22    13    14   ar
    23     6     7    1
    24     7     8    1
    25    25    26   ar
    26    26    27   ar
    27    27    28   ar
    28    28    29    1
    29    29    30    1
    30    30    31    1
    31    31    32    1
    32    32    33    1
    33    33    34    1
    34    28    24   ar
    35    34    29    1
    36     8     1    1
    37     7     3    1
    38    14     9   ar
@<TRIPOS>MOLECULE
*****
 34 38 0 0 0
SMALL
GASTEIGER

@<TRIPOS>ATOM
      1 N         141.7165  142.0648  159.1632 N.3     1  UNL1       -0.2712
      2 C         142.6178  141.0225  158.5704 C.3     1  UNL1        0.0738
      3 C         142.5122  139.7855  159.4122 C.3     1  UNL1        0.0372
      4 C         143.0040  138.3768  159.5662 C.3     1  UNL1        0.0245
      5 C         142.3415  137.7838  160.7743 C.3     1  UNL1        0.0909
      6 N         141.4402  138.8262  161.3670 N.pl3   1  UNL1       -0.3077
      7 C         141.5457  140.0632  160.5252 C.3     1  UNL1        0.0901
      8 C         141.0540  141.4719  160.3713 C.3     1  UNL1        0.0921
      9 C         140.5837  138.6606  162.5873 C.ar    1  UNL1        0.0478
     10 C         139.3042  139.4327  162.7160 C.ar    1  UNL1        0.0145
     11 C         138.4478  139.2670  163.9363 C.ar    1  UNL1        0.0051
     12 C         138.8709  138.3293  165.0279 C.ar    1  UNL1        0.0715
     13 C         140.1505  137.5571  164.8992 C.ar    1  UNL1        0.0051
     14 C         141.0069  137.7227  163.6789 C.ar    1  UNL1        0.0145
     15 C         138.0144  138.1636  166.2481 C.3     1  UNL1        0.4186
     16 F         137.1580  137.9980  167.4684 F       1  UNL1       -0.1659
     17 F         137.9366  139.6543  166.3958 F       1  UNL1       -0.1659
     18 F         138.0923  136.6729  166.1004 F       1  UNL1       -0.1659
     19 C         141.5135  143.4557  158.6397 C.3     1  UNL1        0.0731
     20 C         141.6202  144.6293  159.5677 C.3     1  UNL1        0.0294
     21 C         140.4374  145.5270  159.7810 C.3     1  UNL1        0.0666
     22 S         139.9596  145.8202  161.1722 S.3     1  UNL1       -0.0756
     23 C         142.0469  144.6515  163.3919 C.3     1  UNL1        0.1353
     24 N         140.6522  144.1569  163.1468 N.ar    1  UNL1       -0.2767
     25 C         139.6928  144.6941  162.1265 C.ar    1  UNL1        0.1942
     26 N         138.4196  143.9074  162.2280 N.ar    1  UNL1       -0.1208
     27 N         138.5922  142.8841  163.3110 N.ar    1  UNL1       -0.1122
     28 C         139.9720  143.0382  163.8789 C.ar    1  UNL1        0.2223
     29 N         140.5671  142.2177  164.9847 N.pl3   1  UNL1       -0.2731
     30 C         139.9930  142.2949  166.3683 C.3     1  UNL1        0.1257
     31 C         140.5881  141.4745  167.4741 C.3     1  UNL1        0.1637
     32 O         141.7573  140.5768  167.1961 O.3     1  UNL1       -0.3501
     33 C         142.3314  140.4996  165.8125 C.3     1  UNL1        0.1637
     34 C         141.7362  141.3201  164.7067 C.3     1  UNL1        0.1257
@<TRIPOS>BOND
     1    23    24    1
     2    24    25   ar
     3    25    22    1
     4    22    21    1
     5    21    20    1
     6    20    19    1
     7    19     1    1
     8     1     2    1
     9     2     3    1
    10     3     4    1
    11     4     5    1
    12     5     6    1
    13     6     9    1
    14     9    10   ar
    15    10    11   ar
    16    11    12   ar
    17    12    15    1
    18    15    16    1
    19    15    17    1
    20    15    18    1
    21    12    13   ar
    22    13    14   ar
    23     6     7    1
    24     7     8    1
    25    25    26   ar
    26    26    27   ar
    27    27    28   ar
    28    28    29    1
    29    29    30    1
    30    30    31    1
    31    31    32    1
    32    32    33    1
    33    33    34    1
    34    28    24   ar
    35    34    29    1
    36     8     1    1
    37     7     3    1
    38    14     9   ar
@<TRIPOS>MOLECULE
*****
 34 38 0 0 0
SMALL
GASTEIGER

@<TRIPOS>ATOM
      1 N         143.5522  142.4478  160.1838 N.3     1  UNL1       -0.2712
      2 C         144.9150  142.5140  160.8071 C.3     1  UNL1        0.0738
      3 C         144.8402  141.8612  162.1555 C.3     1  UNL1        0.0372
      4 C         145.6362  141.4986  163.3741 C.3     1  UNL1        0.0245
      5 C         144.7192  140.8049  164.3374 C.3     1  UNL1        0.0909
      6 N         143.3563  140.7387  163.7140 N.pl3   1  UNL1       -0.3077
      7 C         143.4312  141.3915  162.3656 C.3     1  UNL1        0.0901
      8 C         142.6352  141.7541  161.1470 C.3     1  UNL1        0.0921
      9 C         142.1334  140.1271  164.3309 C.ar    1  UNL1        0.0478
     10 C         141.1369  139.4107  163.4687 C.ar    1  UNL1        0.0145
     11 C         139.9140  138.7991  164.0855 C.ar    1  UNL1        0.0051
     12 C         139.6877  138.9039  165.5646 C.ar    1  UNL1        0.0715
     13 C         140.6843  139.6205  166.4269 C.ar    1  UNL1        0.0051
     14 C         141.9071  140.2320  165.8101 C.ar    1  UNL1        0.0145
     15 C         138.4648  138.2923  166.1814 C.3     1  UNL1        0.4186
     16 F         137.2419  137.6807  166.7983 F       1  UNL1       -0.1659
     17 F         138.4523  139.3698  167.2250 F       1  UNL1       -0.1659
     18 F         138.4773  137.2149  165.1379 F       1  UNL1       -0.1659
     19 C         143.1731  142.9816  158.8343 C.3     1  UNL1        0.0731
     20 C         142.1452  142.2679  158.0072 C.3     1  UNL1        0.0294
     21 C         141.0777  143.0489  157.2996 C.3     1  UNL1        0.0666
     22 S         140.2777  144.0737  158.0478 S.3     1  UNL1       -0.0756
     23 C         141.1952  145.1051  161.0048 C.3     1  UNL1        0.1353
     24 N         140.0472  144.1862  160.7085 N.ar    1  UNL1       -0.2767
     25 C         139.6255  143.7121  159.3493 C.ar    1  UNL1        0.1942
     26 N         138.4371  142.8128  159.5201 N.ar    1  UNL1       -0.1208
     27 N         138.1244  142.7312  160.9848 N.ar    1  UNL1       -0.1122
     28 C         139.1195  143.5800  161.7194 C.ar    1  UNL1        0.2223
     29 N         139.1767  143.7863  163.2040 N.pl3   1  UNL1       -0.2731
     30 C         140.3301  143.2412  163.9930 C.3     1  UNL1        0.1257
     31 C         140.3874  143.4475  165.4777 C.3     1  UNL1        0.1637
     32 O         139.2911  144.1989  166.1732 O.3     1  UNL1       -0.3501
     33 C         138.1377  144.7440  165.3842 C.3     1  UNL1        0.1637
     34 C         138.0805  144.5376  163.8996 C.3     1  UNL1        0.1257
@<TRIPOS>BOND
     1    23    24    1
     2    24    25   ar
     3    25    22    1
     4    22    21    1
     5    21    20    1
     6    20    19    1
     7    19     1    1
     8     1     2    1
     9     2     3    1
    10     3     4    1
    11     4     5    1
    12     5     6    1
    13     6     9    1
    14     9    10   ar
    15    10    11   ar
    16    11    12   ar
    17    12    15    1
    18    15    16    1
    19    15    17    1
    20    15    18    1
    21    12    13   ar
    22    13    14   ar
    23     6     7    1
    24     7     8    1
    25    25    26   ar
    26    26    27   ar
    27    27    28   ar
    28    28    29    1
    29    29    30    1
    30    30    31    1
    31    31    32    1
    32    32    33    1
    33    33    34    1
    34    28    24   ar
    35    34    29    1
    36     8     1    1
    37     7     3    1
    38    14     9   ar
