@<TRIPOS>MOLECULE
*****
 25 27 0 0 0
SMALL
GASTEIGER

@<TRIPOS>ATOM
      1 C         139.6047  138.6318  156.5818 C.ar    1  UNL1        0.2701
      2 C         138.7894  139.1000  155.4131 C.ar    1  UNL1        0.0787
      3 C         137.9165  140.3127  155.5453 C.ar    1  UNL1        0.0136
      4 C         137.8589  141.0571  156.8462 C.ar    1  UNL1        0.0787
      5 C         138.6742  140.5889  158.0150 C.ar    1  UNL1        0.2701
      6 N         139.5471  139.3762  157.8828 N.ar    1  UNL1       -0.1494
      7 C         140.3624  138.9080  159.0516 C.3     1  UNL1        0.4092
      8 C         141.3506  136.2065  156.3175 C.1     1  UNL1       -0.0540
      9 C         140.4776  137.4191  156.4496 C.1     1  UNL1        0.0086
     10 C         144.8422  131.3559  155.7887 C.3     1  UNL1        0.0310
     11 C         143.9693  132.5685  155.9209 C.ar    1  UNL1       -0.0218
     12 C         144.1109  133.4683  157.1126 C.ar    1  UNL1       -0.0036
     13 C         143.2380  134.6809  157.2448 C.ar    1  UNL1        0.0079
     14 C         142.2235  134.9938  156.1853 C.ar    1  UNL1        0.0421
     15 C         142.0818  134.0941  154.9935 C.ar    1  UNL1        0.0079
     16 C         142.9548  132.8814  154.8613 C.ar    1  UNL1       -0.0036
     17 C         138.6166  141.3333  159.3160 C.1     1  UNL1        0.0086
     18 C         138.5589  142.0777  160.6169 C.1     1  UNL1       -0.0540
     19 C         138.5014  142.8222  161.9179 C.ar    1  UNL1        0.0421
     20 C         139.2810  144.0920  162.0906 C.ar    1  UNL1        0.0079
     21 C         139.2234  144.8364  163.3915 C.ar    1  UNL1       -0.0036
     22 C         138.3862  144.3110  164.5198 C.ar    1  UNL1       -0.0218
     23 C         138.3286  145.0555  165.8208 C.3     1  UNL1        0.0310
     24 C         137.6066  143.0412  164.3471 C.ar    1  UNL1       -0.0036
     25 C         137.6642  142.2968  163.0462 C.ar    1  UNL1        0.0079
@<TRIPOS>UNITY_ATOM_ATTR
6 1
charge 1
@<TRIPOS>BOND
     1    10    11    1
     2    11    12   ar
     3    12    13   ar
     4    13    14   ar
     5    14     8    1
     6     8     9    3
     7     9     1    1
     8     1     2   ar
     9     2     3   ar
    10     3     4   ar
    11     4     5   ar
    12     5    17    1
    13    17    18    3
    14    18    19    1
    15    19    20   ar
    16    20    21   ar
    17    21    22   ar
    18    22    23    1
    19    22    24   ar
    20    24    25   ar
    21     5     6   ar
    22     6     7    1
    23    14    15   ar
    24    15    16   ar
    25    16    11   ar
    26     6     1   ar
    27    25    19   ar
@<TRIPOS>MOLECULE
*****
 25 27 0 0 0
SMALL
GASTEIGER

@<TRIPOS>ATOM
      1 C         138.6693  140.5830  158.0058 C.ar    1  UNL1        0.2701
      2 C         137.8521  141.0462  156.8364 C.ar    1  UNL1        0.0787
      3 C         137.9110  140.2989  155.5372 C.ar    1  UNL1        0.0136
      4 C         138.7871  139.0883  155.4074 C.ar    1  UNL1        0.0787
      5 C         139.6043  138.6250  156.5768 C.ar    1  UNL1        0.2701
      6 N         139.5453  139.3724  157.8760 N.ar    1  UNL1       -0.1494
      7 C         140.3626  138.9091  159.0455 C.3     1  UNL1        0.4092
      8 C         138.5514  142.0777  160.6043 C.1     1  UNL1       -0.0540
      9 C         138.6103  141.3303  159.3051 C.1     1  UNL1        0.0086
     10 C         138.3156  145.0671  165.8012 C.3     1  UNL1        0.0310
     11 C         138.3746  144.3197  164.5020 C.ar    1  UNL1       -0.0218
     12 C         137.6210  143.0326  164.3422 C.ar    1  UNL1       -0.0036
     13 C         137.6800  142.2853  163.0430 C.ar    1  UNL1        0.0079
     14 C         138.4924  142.8250  161.9035 C.ar    1  UNL1        0.0421
     15 C         139.2460  144.1121  162.0632 C.ar    1  UNL1        0.0079
     16 C         139.1870  144.8594  163.3625 C.ar    1  UNL1       -0.0036
     17 C         140.4804  137.4144  156.4470 C.1     1  UNL1        0.0086
     18 C         141.3565  136.2038  156.3173 C.1     1  UNL1       -0.0540
     19 C         142.2327  134.9931  156.1876 C.ar    1  UNL1        0.0421
     20 C         143.2291  134.6700  157.2612 C.ar    1  UNL1        0.0079
     21 C         144.1053  133.4594  157.1315 C.ar    1  UNL1       -0.0036
     22 C         143.9849  132.5720  155.9282 C.ar    1  UNL1       -0.0218
     23 C         144.8611  131.3613  155.7984 C.3     1  UNL1        0.0310
     24 C         142.9885  132.8952  154.8546 C.ar    1  UNL1       -0.0036
     25 C         142.1124  134.1057  154.9843 C.ar    1  UNL1        0.0079
@<TRIPOS>UNITY_ATOM_ATTR
6 1
charge 1
@<TRIPOS>BOND
     1    10    11    1
     2    11    12   ar
     3    12    13   ar
     4    13    14   ar
     5    14     8    1
     6     8     9    3
     7     9     1    1
     8     1     2   ar
     9     2     3   ar
    10     3     4   ar
    11     4     5   ar
    12     5    17    1
    13    17    18    3
    14    18    19    1
    15    19    20   ar
    16    20    21   ar
    17    21    22   ar
    18    22    23    1
    19    22    24   ar
    20    24    25   ar
    21     5     6   ar
    22     6     7    1
    23    14    15   ar
    24    15    16   ar
    25    16    11   ar
    26     6     1   ar
    27    25    19   ar
@<TRIPOS>MOLECULE
*****
 25 27 0 0 0
SMALL
GASTEIGER

@<TRIPOS>ATOM
      1 C         141.3352  144.3919  160.6047 C.ar    1  UNL1        0.2701
      2 C         140.5289  145.6367  160.3811 C.ar    1  UNL1        0.0787
      3 C         139.6617  146.1761  161.4797 C.ar    1  UNL1        0.0136
      4 C         139.6008  145.4707  162.8020 C.ar    1  UNL1        0.0787
      5 C         140.4072  144.2258  163.0257 C.ar    1  UNL1        0.2701
      6 N         141.2743  143.6864  161.9270 N.ar    1  UNL1       -0.1494
      7 C         142.0807  142.4414  162.1507 C.3     1  UNL1        0.4092
      8 C         143.0695  143.3130  158.4074 C.1     1  UNL1       -0.0540
      9 C         142.2023  143.8524  159.5060 C.1     1  UNL1        0.0086
     10 C         146.5381  141.1554  154.0127 C.3     1  UNL1        0.0310
     11 C         145.6710  141.6948  155.1114 C.ar    1  UNL1       -0.0218
     12 C         146.2243  141.8474  156.4972 C.ar    1  UNL1       -0.0036
     13 C         145.3572  142.3868  157.5958 C.ar    1  UNL1        0.0079
     14 C         143.9367  142.7736  157.3087 C.ar    1  UNL1        0.0421
     15 C         143.3833  142.6210  155.9229 C.ar    1  UNL1        0.0079
     16 C         144.2505  142.0816  154.8242 C.ar    1  UNL1       -0.0036
     17 C         140.3463  143.5202  164.3480 C.1     1  UNL1        0.0086
     18 C         140.2855  142.8147  165.6703 C.1     1  UNL1       -0.0540
     19 C         140.2247  142.1091  166.9927 C.ar    1  UNL1        0.0421
     20 C         140.6268  142.8288  168.2459 C.ar    1  UNL1        0.0079
     21 C         140.5660  142.1233  169.5682 C.ar    1  UNL1       -0.0036
     22 C         140.1031  140.6982  169.6373 C.ar    1  UNL1       -0.0218
     23 C         140.0423  139.9926  170.9597 C.3     1  UNL1        0.0310
     24 C         139.7010  139.9786  168.3841 C.ar    1  UNL1       -0.0036
     25 C         139.7618  140.6841  167.0618 C.ar    1  UNL1        0.0079
@<TRIPOS>UNITY_ATOM_ATTR
6 1
charge 1
@<TRIPOS>BOND
     1    10    11    1
     2    11    12   ar
     3    12    13   ar
     4    13    14   ar
     5    14     8    1
     6     8     9    3
     7     9     1    1
     8     1     2   ar
     9     2     3   ar
    10     3     4   ar
    11     4     5   ar
    12     5    17    1
    13    17    18    3
    14    18    19    1
    15    19    20   ar
    16    20    21   ar
    17    21    22   ar
    18    22    23    1
    19    22    24   ar
    20    24    25   ar
    21     5     6   ar
    22     6     7    1
    23    14    15   ar
    24    15    16   ar
    25    16    11   ar
    26     6     1   ar
    27    25    19   ar
@<TRIPOS>MOLECULE
*****
 25 27 0 0 0
SMALL
GASTEIGER

@<TRIPOS>ATOM
      1 C         143.4531  141.0527  161.6770 C.ar    1  UNL1        0.2701
      2 C         143.9092  142.3178  161.0125 C.ar    1  UNL1        0.0787
      3 C         144.0640  142.3680  159.5213 C.ar    1  UNL1        0.0136
      4 C         143.7628  141.1531  158.6947 C.ar    1  UNL1        0.0787
      5 C         143.3067  139.8881  159.3592 C.ar    1  UNL1        0.2701
      6 N         143.1519  139.8379  160.8503 N.ar    1  UNL1       -0.1494
      7 C         142.6958  138.5727  161.5148 C.3     1  UNL1        0.4092
      8 C         143.1434  140.9524  164.6593 C.1     1  UNL1       -0.0540
      9 C         143.2982  141.0025  163.1681 C.1     1  UNL1        0.0086
     10 C         142.5240  140.7516  170.6238 C.3     1  UNL1        0.0310
     11 C         142.6788  140.8018  169.1327 C.ar    1  UNL1       -0.0218
     12 C         142.9570  142.1087  168.4511 C.ar    1  UNL1       -0.0036
     13 C         143.1118  142.1589  166.9600 C.ar    1  UNL1        0.0079
     14 C         142.9885  140.9022  166.1504 C.ar    1  UNL1        0.0421
     15 C         142.7104  139.5953  166.8320 C.ar    1  UNL1        0.0079
     16 C         142.5555  139.5451  168.3231 C.ar    1  UNL1       -0.0036
     17 C         143.0055  138.6731  158.5326 C.1     1  UNL1        0.0086
     18 C         142.7042  137.4583  157.7060 C.1     1  UNL1       -0.0540
     19 C         142.4030  136.2433  156.8793 C.ar    1  UNL1        0.0421
     20 C         141.3299  136.2957  155.8325 C.ar    1  UNL1        0.0079
     21 C         141.0287  135.0808  155.0059 C.ar    1  UNL1       -0.0036
     22 C         141.8005  133.8136  155.2261 C.ar    1  UNL1       -0.0218
     23 C         141.4992  132.5987  154.3995 C.3     1  UNL1        0.0310
     24 C         142.8735  133.7613  156.2729 C.ar    1  UNL1       -0.0036
     25 C         143.1748  134.9761  157.0996 C.ar    1  UNL1        0.0079
@<TRIPOS>UNITY_ATOM_ATTR
6 1
charge 1
@<TRIPOS>BOND
     1    10    11    1
     2    11    12   ar
     3    12    13   ar
     4    13    14   ar
     5    14     8    1
     6     8     9    3
     7     9     1    1
     8     1     2   ar
     9     2     3   ar
    10     3     4   ar
    11     4     5   ar
    12     5    17    1
    13    17    18    3
    14    18    19    1
    15    19    20   ar
    16    20    21   ar
    17    21    22   ar
    18    22    23    1
    19    22    24   ar
    20    24    25   ar
    21     5     6   ar
    22     6     7    1
    23    14    15   ar
    24    15    16   ar
    25    16    11   ar
    26     6     1   ar
    27    25    19   ar
@<TRIPOS>MOLECULE
*****
 25 27 0 0 0
SMALL
GASTEIGER

@<TRIPOS>ATOM
      1 C         143.2075  139.6295  159.1554 C.ar    1  UNL1        0.2701
      2 C         143.5780  140.8922  158.4355 C.ar    1  UNL1        0.0787
      3 C         143.8313  142.1509  159.2109 C.ar    1  UNL1        0.0136
      4 C         143.7141  142.1471  160.7063 C.ar    1  UNL1        0.0787
      5 C         143.3436  140.8844  161.4262 C.ar    1  UNL1        0.2701
      6 N         143.0903  139.6256  160.6508 N.ar    1  UNL1       -0.1494
      7 C         142.7198  138.3629  161.3708 C.3     1  UNL1        0.4092
      8 C         142.7008  137.1119  157.6046 C.1     1  UNL1       -0.0540
      9 C         142.9542  138.3707  158.3800 C.1     1  UNL1        0.0086
     10 C         141.6876  132.0768  154.5028 C.3     1  UNL1        0.0310
     11 C         141.9409  133.3356  155.2783 C.ar    1  UNL1       -0.0218
     12 C         142.9517  133.3432  156.3864 C.ar    1  UNL1       -0.0036
     13 C         143.2051  134.6020  157.1619 C.ar    1  UNL1        0.0079
     14 C         142.4475  135.8531  156.8291 C.ar    1  UNL1        0.0421
     15 C         141.4367  135.8455  155.7210 C.ar    1  UNL1        0.0079
     16 C         141.1834  134.5867  154.9455 C.ar    1  UNL1       -0.0036
     17 C         143.2264  140.8805  162.9217 C.1     1  UNL1        0.0086
     18 C         143.1092  140.8765  164.4171 C.1     1  UNL1       -0.0540
     19 C         142.9920  140.8726  165.9125 C.ar    1  UNL1        0.0421
     20 C         143.1217  142.1558  166.6784 C.ar    1  UNL1        0.0079
     21 C         143.0045  142.1520  168.1737 C.ar    1  UNL1       -0.0036
     22 C         142.7576  140.8649  168.9033 C.ar    1  UNL1       -0.0218
     23 C         142.6404  140.8609  170.3988 C.3     1  UNL1        0.0310
     24 C         142.6278  139.5816  168.1375 C.ar    1  UNL1       -0.0036
     25 C         142.7450  139.5855  166.6421 C.ar    1  UNL1        0.0079
@<TRIPOS>UNITY_ATOM_ATTR
6 1
charge 1
@<TRIPOS>BOND
     1    10    11    1
     2    11    12   ar
     3    12    13   ar
     4    13    14   ar
     5    14     8    1
     6     8     9    3
     7     9     1    1
     8     1     2   ar
     9     2     3   ar
    10     3     4   ar
    11     4     5   ar
    12     5    17    1
    13    17    18    3
    14    18    19    1
    15    19    20   ar
    16    20    21   ar
    17    21    22   ar
    18    22    23    1
    19    22    24   ar
    20    24    25   ar
    21     5     6   ar
    22     6     7    1
    23    14    15   ar
    24    15    16   ar
    25    16    11   ar
    26     6     1   ar
    27    25    19   ar
@<TRIPOS>MOLECULE
*****
 25 27 0 0 0
SMALL
GASTEIGER

@<TRIPOS>ATOM
      1 C         140.4294  144.1811  163.0829 C.ar    1  UNL1        0.2701
      2 C         139.6244  145.4275  162.8631 C.ar    1  UNL1        0.0787
      3 C         139.6816  146.1339  161.5410 C.ar    1  UNL1        0.0136
      4 C         140.5439  145.5939  160.4388 C.ar    1  UNL1        0.0787
      5 C         141.3488  144.3475  160.6587 C.ar    1  UNL1        0.2701
      6 N         141.2916  143.6411  161.9807 N.ar    1  UNL1       -0.1494
      7 C         142.0966  142.3946  162.2005 C.3     1  UNL1        0.4092
      8 C         140.3149  142.7683  165.7269 C.1     1  UNL1       -0.0540
      9 C         140.3721  143.4747  164.4049 C.1     1  UNL1        0.0086
     10 C         140.0859  139.9427  171.0150 C.3     1  UNL1        0.0310
     11 C         140.1432  140.6491  169.6929 C.ar    1  UNL1       -0.0218
     12 C         140.5119  142.1019  169.6342 C.ar    1  UNL1       -0.0036
     13 C         140.5691  142.8083  168.3122 C.ar    1  UNL1        0.0079
     14 C         140.2577  142.0619  167.0489 C.ar    1  UNL1        0.0421
     15 C         139.8890  140.6092  167.1077 C.ar    1  UNL1        0.0079
     16 C         139.8317  139.9028  168.4297 C.ar    1  UNL1       -0.0036
     17 C         142.2111  143.8074  159.5564 C.1     1  UNL1        0.0086
     18 C         143.0734  143.2673  158.4543 C.1     1  UNL1       -0.0540
     19 C         143.9357  142.7272  157.3520 C.ar    1  UNL1        0.0421
     20 C         143.3592  142.5173  155.9832 C.ar    1  UNL1        0.0079
     21 C         144.2214  141.9773  154.8810 C.ar    1  UNL1       -0.0036
     22 C         145.6601  141.6471  155.1476 C.ar    1  UNL1       -0.0218
     23 C         146.5224  141.1070  154.0454 C.3     1  UNL1        0.0310
     24 C         146.2366  141.8570  156.5164 C.ar    1  UNL1       -0.0036
     25 C         145.3744  142.3971  157.6186 C.ar    1  UNL1        0.0079
@<TRIPOS>UNITY_ATOM_ATTR
6 1
charge 1
@<TRIPOS>BOND
     1    10    11    1
     2    11    12   ar
     3    12    13   ar
     4    13    14   ar
     5    14     8    1
     6     8     9    3
     7     9     1    1
     8     1     2   ar
     9     2     3   ar
    10     3     4   ar
    11     4     5   ar
    12     5    17    1
    13    17    18    3
    14    18    19    1
    15    19    20   ar
    16    20    21   ar
    17    21    22   ar
    18    22    23    1
    19    22    24   ar
    20    24    25   ar
    21     5     6   ar
    22     6     7    1
    23    14    15   ar
    24    15    16   ar
    25    16    11   ar
    26     6     1   ar
    27    25    19   ar
@<TRIPOS>MOLECULE
*****
 25 27 0 0 0
SMALL
GASTEIGER

@<TRIPOS>ATOM
      1 C         142.4707  140.7027  161.2963 C.ar    1  UNL1        0.2701
      2 C         142.2596  141.9963  160.5670 C.ar    1  UNL1        0.0787
      3 C         142.1838  142.0090  159.0690 C.ar    1  UNL1        0.0136
      4 C         142.3192  140.7281  158.3003 C.ar    1  UNL1        0.0787
      5 C         142.5303  139.4345  159.0296 C.ar    1  UNL1        0.2701
      6 N         142.6061  139.4218  160.5276 N.ar    1  UNL1       -0.1494
      7 C         142.8172  138.1281  161.2570 C.3     1  UNL1        0.4092
      8 C         142.6222  140.6773  164.2924 C.1     1  UNL1       -0.0540
      9 C         142.5464  140.6900  162.7944 C.1     1  UNL1        0.0086
     10 C         142.9251  140.6265  170.2845 C.3     1  UNL1        0.0310
     11 C         142.8494  140.6392  168.7865 C.ar    1  UNL1       -0.0218
     12 C         142.6581  139.3556  168.0343 C.ar    1  UNL1       -0.0036
     13 C         142.5824  139.3683  166.5363 C.ar    1  UNL1        0.0079
     14 C         142.6979  140.6646  165.7904 C.ar    1  UNL1        0.0421
     15 C         142.8892  141.9481  166.5426 C.ar    1  UNL1        0.0079
     16 C         142.9650  141.9354  168.0407 C.ar    1  UNL1       -0.0036
     17 C         142.6657  138.1535  158.2609 C.1     1  UNL1        0.0086
     18 C         142.8012  136.8726  157.4922 C.1     1  UNL1       -0.0540
     19 C         142.9366  135.5916  156.7236 C.ar    1  UNL1        0.0421
     20 C         143.3753  134.3397  157.4236 C.ar    1  UNL1        0.0079
     21 C         143.5107  133.0587  156.6550 C.ar    1  UNL1       -0.0036
     22 C         143.2074  133.0297  155.1863 C.ar    1  UNL1       -0.0218
     23 C         143.3428  131.7487  154.4177 C.3     1  UNL1        0.0310
     24 C         142.7687  134.2817  154.4863 C.ar    1  UNL1       -0.0036
     25 C         142.6333  135.5626  155.2549 C.ar    1  UNL1        0.0079
@<TRIPOS>UNITY_ATOM_ATTR
6 1
charge 1
@<TRIPOS>BOND
     1    10    11    1
     2    11    12   ar
     3    12    13   ar
     4    13    14   ar
     5    14     8    1
     6     8     9    3
     7     9     1    1
     8     1     2   ar
     9     2     3   ar
    10     3     4   ar
    11     4     5   ar
    12     5    17    1
    13    17    18    3
    14    18    19    1
    15    19    20   ar
    16    20    21   ar
    17    21    22   ar
    18    22    23    1
    19    22    24   ar
    20    24    25   ar
    21     5     6   ar
    22     6     7    1
    23    14    15   ar
    24    15    16   ar
    25    16    11   ar
    26     6     1   ar
    27    25    19   ar
@<TRIPOS>MOLECULE
*****
 25 27 0 0 0
SMALL
GASTEIGER

@<TRIPOS>ATOM
      1 C         142.4152  141.4706  158.7849 C.ar    1  UNL1        0.2701
      2 C         143.2230  142.3367  157.8644 C.ar    1  UNL1        0.0787
      3 C         143.9123  141.7313  156.6777 C.ar    1  UNL1        0.0136
      4 C         143.7938  140.2599  156.4114 C.ar    1  UNL1        0.0787
      5 C         142.9860  139.3939  157.3319 C.ar    1  UNL1        0.2701
      6 N         142.2967  139.9993  158.5187 N.ar    1  UNL1       -0.1494
      7 C         141.4889  139.1331  159.4392 C.3     1  UNL1        0.4092
      8 C         141.0366  142.6813  161.1584 C.1     1  UNL1       -0.0540
      9 C         141.7259  142.0760  159.9717 C.1     1  UNL1        0.0086
     10 C         138.2794  145.1027  165.9055 C.3     1  UNL1        0.0310
     11 C         138.9687  144.4974  164.7187 C.ar    1  UNL1       -0.0218
     12 C         140.3812  144.0079  164.8409 C.ar    1  UNL1       -0.0036
     13 C         141.0706  143.4025  163.6542 C.ar    1  UNL1        0.0079
     14 C         140.3473  143.2867  162.3452 C.ar    1  UNL1        0.0421
     15 C         138.9347  143.7762  162.2230 C.ar    1  UNL1        0.0079
     16 C         138.2454  144.3815  163.4098 C.ar    1  UNL1       -0.0036
     17 C         142.8675  137.9224  157.0657 C.1     1  UNL1        0.0086
     18 C         142.7489  136.4510  156.7995 C.1     1  UNL1       -0.0540
     19 C         142.6304  134.9796  156.5332 C.ar    1  UNL1        0.0421
     20 C         141.6643  134.4798  155.5003 C.ar    1  UNL1        0.0079
     21 C         141.5457  133.0084  155.2341 C.ar    1  UNL1       -0.0036
     22 C         142.3932  132.0368  156.0007 C.ar    1  UNL1       -0.0218
     23 C         142.2747  130.5654  155.7345 C.3     1  UNL1        0.0310
     24 C         143.3593  132.5367  157.0336 C.ar    1  UNL1       -0.0036
     25 C         143.4778  134.0080  157.2999 C.ar    1  UNL1        0.0079
@<TRIPOS>UNITY_ATOM_ATTR
6 1
charge 1
@<TRIPOS>BOND
     1    10    11    1
     2    11    12   ar
     3    12    13   ar
     4    13    14   ar
     5    14     8    1
     6     8     9    3
     7     9     1    1
     8     1     2   ar
     9     2     3   ar
    10     3     4   ar
    11     4     5   ar
    12     5    17    1
    13    17    18    3
    14    18    19    1
    15    19    20   ar
    16    20    21   ar
    17    21    22   ar
    18    22    23    1
    19    22    24   ar
    20    24    25   ar
    21     5     6   ar
    22     6     7    1
    23    14    15   ar
    24    15    16   ar
    25    16    11   ar
    26     6     1   ar
    27    25    19   ar
@<TRIPOS>MOLECULE
*****
 25 27 0 0 0
SMALL
GASTEIGER

@<TRIPOS>ATOM
      1 C         141.4421  139.6921  159.8929 C.ar    1  UNL1        0.2701
      2 C         140.3549  138.8133  159.3492 C.ar    1  UNL1        0.0787
      3 C         139.2248  138.3824  160.2365 C.ar    1  UNL1        0.0136
      4 C         139.1819  138.8303  161.6674 C.ar    1  UNL1        0.0787
      5 C         140.2691  139.7092  162.2110 C.ar    1  UNL1        0.2701
      6 N         141.3992  140.1401  161.3238 N.ar    1  UNL1       -0.1494
      7 C         142.4864  141.0190  161.8675 C.3     1  UNL1        0.4092
      8 C         143.7023  140.5539  158.1184 C.1     1  UNL1       -0.0540
      9 C         142.5722  140.1230  159.0056 C.1     1  UNL1        0.0086
     10 C         148.2227  142.2775  154.5695 C.3     1  UNL1        0.0310
     11 C         147.0926  141.8466  155.4567 C.ar    1  UNL1       -0.0218
     12 C         146.2264  140.6885  155.0589 C.ar    1  UNL1       -0.0036
     13 C         145.0963  140.2576  155.9461 C.ar    1  UNL1        0.0079
     14 C         144.8324  140.9848  157.2312 C.ar    1  UNL1        0.0421
     15 C         145.6986  142.1430  157.6290 C.ar    1  UNL1        0.0079
     16 C         146.8287  142.5739  156.7417 C.ar    1  UNL1       -0.0036
     17 C         140.2262  140.1572  163.6419 C.1     1  UNL1        0.0086
     18 C         140.1833  140.6051  165.0728 C.1     1  UNL1       -0.0540
     19 C         140.1404  141.0531  166.5038 C.ar    1  UNL1        0.0421
     20 C         140.5953  142.4345  166.8711 C.ar    1  UNL1        0.0079
     21 C         140.5525  142.8825  168.3020 C.ar    1  UNL1       -0.0036
     22 C         140.0547  141.9491  169.3655 C.ar    1  UNL1       -0.0218
     23 C         140.0119  142.3971  170.7964 C.3     1  UNL1        0.0310
     24 C         139.5998  140.5678  168.9981 C.ar    1  UNL1       -0.0036
     25 C         139.6427  140.1198  167.5673 C.ar    1  UNL1        0.0079
@<TRIPOS>UNITY_ATOM_ATTR
6 1
charge 1
@<TRIPOS>BOND
     1    10    11    1
     2    11    12   ar
     3    12    13   ar
     4    13    14   ar
     5    14     8    1
     6     8     9    3
     7     9     1    1
     8     1     2   ar
     9     2     3   ar
    10     3     4   ar
    11     4     5   ar
    12     5    17    1
    13    17    18    3
    14    18    19    1
    15    19    20   ar
    16    20    21   ar
    17    21    22   ar
    18    22    23    1
    19    22    24   ar
    20    24    25   ar
    21     5     6   ar
    22     6     7    1
    23    14    15   ar
    24    15    16   ar
    25    16    11   ar
    26     6     1   ar
    27    25    19   ar
