@<TRIPOS>MOLECULE
*****
 30 32 0 0 0
SMALL
GASTEIGER

@<TRIPOS>ATOM
      1 C         141.7757  137.9109  163.1266 C.ar    1  UNL1        0.1124
      2 N         141.5553  137.5759  161.6812 N.ar    1  UNL1       -0.2243
      3 C         142.4689  138.1388  160.6331 C.ar    1  UNL1        0.1322
      4 C         143.6029  139.0366  161.0304 C.ar    1  UNL1        0.0345
      5 C         143.8233  139.3716  162.4757 C.ar    1  UNL1        0.0094
      6 C         142.9097  138.8087  163.5239 C.ar    1  UNL1        0.0769
      7 N         142.2484  137.8037  159.1877 N.pl3   1  UNL1       -0.2932
      8 C         141.2793  138.6063  158.3712 C.3     1  UNL1        0.0922
      9 C         141.0588  138.2713  156.9258 C.3     1  UNL1        0.0215
     10 C         141.8075  137.1337  156.2969 C.3     1  UNL1        0.0038
     11 C         142.7766  136.3312  157.1134 C.3     1  UNL1        0.0254
     12 C         142.9971  136.6662  158.5588 C.3     1  UNL1        0.0925
     13 C         143.5253  135.1937  156.4845 C.3     1  UNL1        0.0434
     14 C         143.4520  133.8226  157.0885 C.2     1  UNL1        0.0504
     15 O         142.3257  132.9016  156.7237 O.co2   1  UNL1       -0.5492
     16 O         144.5051  133.3725  158.0573 O.co2   1  UNL1       -0.5492
     17 C         143.1302  139.1438  164.9693 C.2     1  UNL1        0.2478
     18 O         144.1127  138.3529  165.7811 O.2     1  UNL1       -0.2701
     19 N         142.3681  140.2697  165.6029 N.am    1  UNL1       -0.3024
     20 H         141.7232  140.7888  165.0700 H       1  UNL1        0.1497
     21 C         142.5885  140.6048  167.0482 C.3     1  UNL1        0.0719
     22 C         142.3308  139.5722  168.1053 C.3     1  UNL1        0.0196
     23 C         142.5512  139.9073  169.5507 C.3     1  UNL1        0.0017
     24 C         143.0293  141.2749  169.9390 C.3     1  UNL1        0.0001
     25 C         143.2871  142.3075  168.8820 C.3     1  UNL1        0.0017
     26 C         143.0666  141.9725  167.4366 C.3     1  UNL1        0.0196
     27 S         140.8621  137.3480  164.1747 S.3     1  UNL1       -0.0948
     28 C         139.4211  137.7625  164.2145 C.3     1  UNL1        0.0637
     29 C         138.8083  139.4041  166.1329 C.3     1  UNL1        0.0009
     30 C         138.7541  138.0311  165.5309 C.3     1  UNL1        0.0120
@<TRIPOS>UNITY_ATOM_ATTR
15 1
charge -1
@<TRIPOS>BOND
     1    29    30    1
     2    30    28    1
     3    28    27    1
     4    27     1    1
     5     1     2   ar
     6     2     3   ar
     7     3     7    1
     8     7     8    1
     9     8     9    1
    10     9    10    1
    11    10    11    1
    12    11    13    1
    13    13    14    1
    14    14    15   ar
    15    14    16   ar
    16    11    12    1
    17     3     4   ar
    18     4     5   ar
    19     5     6   ar
    20     6    17    1
    21    17    18    2
    22    17    19   am
    23    19    21    1
    24    21    22    1
    25    22    23    1
    26    23    24    1
    27    24    25    1
    28    25    26    1
    29     6     1   ar
    30    26    21    1
    31    12     7    1
    32    19    20    1
@<TRIPOS>MOLECULE
*****
 30 32 0 0 0
SMALL
GASTEIGER

@<TRIPOS>ATOM
      1 C         141.0726  144.1710  163.6671 C.ar    1  UNL1        0.1124
      2 N         141.0589  143.5308  165.0235 N.ar    1  UNL1       -0.2243
      3 C         140.0532  142.4635  165.3390 C.ar    1  UNL1        0.1322
      4 C         139.0612  142.0365  164.2981 C.ar    1  UNL1        0.0345
      5 C         139.0749  142.6767  162.9417 C.ar    1  UNL1        0.0094
      6 C         140.0806  143.7440  162.6262 C.ar    1  UNL1        0.0769
      7 N         140.0396  141.8233  166.6955 N.pl3   1  UNL1       -0.2932
      8 C         139.3898  140.4849  166.8866 C.3     1  UNL1        0.0922
      9 C         139.3761  139.8447  168.2430 C.3     1  UNL1        0.0215
     10 C         140.0123  140.5428  169.4084 C.3     1  UNL1        0.0038
     11 C         140.6621  141.8812  169.2172 C.3     1  UNL1        0.0254
     12 C         140.6757  142.5214  167.8607 C.3     1  UNL1        0.0925
     13 C         141.2982  142.5793  170.3825 C.3     1  UNL1        0.0434
     14 C         142.7808  142.8059  170.4027 C.2     1  UNL1        0.0504
     15 O         143.6987  141.8245  169.7362 O.co2   1  UNL1       -0.5492
     16 O         143.3456  144.0140  171.0895 O.co2   1  UNL1       -0.5492
     17 C         140.0943  144.3842  161.2697 C.2     1  UNL1        0.2478
     18 O         139.4270  145.7111  161.0599 O.2     1  UNL1       -0.2701
     19 N         140.7752  143.6975  160.1231 N.am    1  UNL1       -0.3024
     20 H         141.2131  142.8265  160.2608 H       1  UNL1        0.1497
     21 C         140.7889  144.3376  158.7666 C.3     1  UNL1        0.0719
     22 C         139.7069  144.0214  157.7771 C.3     1  UNL1        0.0196
     23 C         139.7206  144.6616  156.4206 C.3     1  UNL1        0.0017
     24 C         140.8163  145.6180  156.0537 C.3     1  UNL1        0.0001
     25 C         141.8983  145.9342  157.0432 C.3     1  UNL1        0.0017
     26 C         141.8846  145.2941  158.3997 C.3     1  UNL1        0.0196
     27 S         142.0783  145.2382  163.3516 S.3     1  UNL1       -0.0948
     28 C         143.5327  145.0059  163.6359 C.3     1  UNL1        0.0637
     29 C         144.1060  143.3438  161.7231 C.3     1  UNL1        0.0009
     30 C         144.1970  143.7460  163.1654 C.3     1  UNL1        0.0120
@<TRIPOS>UNITY_ATOM_ATTR
15 1
charge -1
@<TRIPOS>BOND
     1    29    30    1
     2    30    28    1
     3    28    27    1
     4    27     1    1
     5     1     2   ar
     6     2     3   ar
     7     3     7    1
     8     7     8    1
     9     8     9    1
    10     9    10    1
    11    10    11    1
    12    11    13    1
    13    13    14    1
    14    14    15   ar
    15    14    16   ar
    16    11    12    1
    17     3     4   ar
    18     4     5   ar
    19     5     6   ar
    20     6    17    1
    21    17    18    2
    22    17    19   am
    23    19    21    1
    24    21    22    1
    25    22    23    1
    26    23    24    1
    27    24    25    1
    28    25    26    1
    29     6     1   ar
    30    26    21    1
    31    12     7    1
    32    19    20    1
@<TRIPOS>MOLECULE
*****
 30 32 0 0 0
SMALL
GASTEIGER

@<TRIPOS>ATOM
      1 C         140.8624  143.2801  163.2178 C.ar    1  UNL1        0.1124
      2 N         140.9301  142.7834  164.6315 N.ar    1  UNL1       -0.2243
      3 C         141.4426  141.4030  164.9177 C.ar    1  UNL1        0.1322
      4 C         141.8874  140.5194  163.7902 C.ar    1  UNL1        0.0345
      5 C         141.8197  141.0162  162.3765 C.ar    1  UNL1        0.0094
      6 C         141.3071  142.3965  162.0903 C.ar    1  UNL1        0.0769
      7 N         141.5104  140.9063  166.3315 N.pl3   1  UNL1       -0.2932
      8 C         142.5492  139.8976  166.7230 C.3     1  UNL1        0.0922
      9 C         142.6170  139.4008  168.1367 C.3     1  UNL1        0.0215
     10 C         141.6459  139.9128  169.1590 C.3     1  UNL1        0.0038
     11 C         140.6070  140.9214  168.7674 C.3     1  UNL1        0.0254
     12 C         140.5393  141.4182  167.3536 C.3     1  UNL1        0.0925
     13 C         139.6359  141.4334  169.7896 C.3     1  UNL1        0.0434
     14 C         140.0449  142.5274  170.7307 C.2     1  UNL1        0.0504
     15 O         139.9434  143.9615  170.3030 O.co2   1  UNL1       -0.5492
     16 O         140.5553  142.1873  172.0996 O.co2   1  UNL1       -0.5492
     17 C         141.2394  142.8933  160.6765 C.2     1  UNL1        0.2478
     18 O         139.9802  142.7197  159.8801 O.2     1  UNL1       -0.2701
     19 N         142.4309  143.5636  160.0592 N.am    1  UNL1       -0.3024
     20 H         143.2573  143.6775  160.5819 H       1  UNL1        0.1497
     21 C         142.3632  144.0604  158.6455 C.3     1  UNL1        0.0719
     22 C         142.8856  143.2098  157.5258 C.3     1  UNL1        0.0196
     23 C         142.8178  143.7066  156.1121 C.3     1  UNL1        0.0017
     24 C         142.2278  145.0539  155.8180 C.3     1  UNL1        0.0001
     25 C         141.7054  145.9045  156.9377 C.3     1  UNL1        0.0017
     26 C         141.7731  145.4078  158.3514 C.3     1  UNL1        0.0196
     27 S         140.3499  144.6605  162.9316 S.3     1  UNL1       -0.0948
     28 C         138.9112  144.8641  162.5591 C.3     1  UNL1        0.0637
     29 C         137.8494  144.4165  164.8876 C.3     1  UNL1        0.0009
     30 C         137.8261  144.2549  163.3965 C.3     1  UNL1        0.0120
@<TRIPOS>UNITY_ATOM_ATTR
15 1
charge -1
@<TRIPOS>BOND
     1    29    30    1
     2    30    28    1
     3    28    27    1
     4    27     1    1
     5     1     2   ar
     6     2     3   ar
     7     3     7    1
     8     7     8    1
     9     8     9    1
    10     9    10    1
    11    10    11    1
    12    11    13    1
    13    13    14    1
    14    14    15   ar
    15    14    16   ar
    16    11    12    1
    17     3     4   ar
    18     4     5   ar
    19     5     6   ar
    20     6    17    1
    21    17    18    2
    22    17    19   am
    23    19    21    1
    24    21    22    1
    25    22    23    1
    26    23    24    1
    27    24    25    1
    28    25    26    1
    29     6     1   ar
    30    26    21    1
    31    12     7    1
    32    19    20    1
@<TRIPOS>MOLECULE
*****
 30 32 0 0 0
SMALL
GASTEIGER

@<TRIPOS>ATOM
      1 C         141.0357  139.9329  169.2780 C.ar    1  UNL1        0.1124
      2 N         140.1434  140.4682  168.1976 N.ar    1  UNL1       -0.2243
      3 C         140.5123  140.2760  166.7564 C.ar    1  UNL1        0.1322
      4 C         141.7735  139.5485  166.3957 C.ar    1  UNL1        0.0345
      5 C         142.6658  139.0133  167.4761 C.ar    1  UNL1        0.0094
      6 C         142.2969  139.2055  168.9172 C.ar    1  UNL1        0.0769
      7 N         139.6199  140.8112  165.6760 N.pl3   1  UNL1       -0.2932
      8 C         138.8645  139.8654  164.7901 C.3     1  UNL1        0.0922
      9 C         137.9721  140.4006  163.7098 C.3     1  UNL1        0.0215
     10 C         137.8352  141.8817  163.5152 C.3     1  UNL1        0.0038
     11 C         138.5907  142.8275  164.4010 C.3     1  UNL1        0.0254
     12 C         139.4831  142.2922  165.4815 C.3     1  UNL1        0.0925
     13 C         138.4538  144.3085  164.2065 C.3     1  UNL1        0.0434
     14 C         139.3708  145.0288  163.2630 C.2     1  UNL1        0.0504
     15 O         140.8290  145.1609  163.5886 O.co2   1  UNL1       -0.5492
     16 O         138.8295  145.6172  161.9937 O.co2   1  UNL1       -0.5492
     17 C         143.1892  138.6703  169.9977 C.2     1  UNL1        0.2478
     18 O         143.7161  139.5897  171.0592 O.2     1  UNL1       -0.2701
     19 N         143.5546  137.2156  170.0164 N.am    1  UNL1       -0.3024
     20 H         143.2088  136.6121  169.3197 H       1  UNL1        0.1497
     21 C         144.4469  136.6803  171.0968 C.3     1  UNL1        0.0719
     22 C         145.7987  137.2895  171.3235 C.3     1  UNL1        0.0196
     23 C         146.6911  136.7542  172.4039 C.3     1  UNL1        0.0017
     24 C         146.2316  135.6097  173.2576 C.3     1  UNL1        0.0001
     25 C         144.8797  135.0004  173.0309 C.3     1  UNL1        0.0017
     26 C         143.9874  135.5357  171.9506 C.3     1  UNL1        0.0196
     27 S         140.6668  140.1252  170.7192 S.3     1  UNL1       -0.0948
     28 C         140.7506  141.4883  171.3394 C.3     1  UNL1        0.0637
     29 C         140.6866  143.6467  169.8947 C.3     1  UNL1        0.0009
     30 C         141.4681  142.5947  170.6246 C.3     1  UNL1        0.0120
@<TRIPOS>UNITY_ATOM_ATTR
15 1
charge -1
@<TRIPOS>BOND
     1    29    30    1
     2    30    28    1
     3    28    27    1
     4    27     1    1
     5     1     2   ar
     6     2     3   ar
     7     3     7    1
     8     7     8    1
     9     8     9    1
    10     9    10    1
    11    10    11    1
    12    11    13    1
    13    13    14    1
    14    14    15   ar
    15    14    16   ar
    16    11    12    1
    17     3     4   ar
    18     4     5   ar
    19     5     6   ar
    20     6    17    1
    21    17    18    2
    22    17    19   am
    23    19    21    1
    24    21    22    1
    25    22    23    1
    26    23    24    1
    27    24    25    1
    28    25    26    1
    29     6     1   ar
    30    26    21    1
    31    12     7    1
    32    19    20    1
@<TRIPOS>MOLECULE
*****
 30 32 0 0 0
SMALL
GASTEIGER

@<TRIPOS>ATOM
      1 C         140.6345  142.1280  162.9396 C.ar    1  UNL1        0.1124
      2 N         141.1852  141.7278  164.2761 N.ar    1  UNL1       -0.2243
      3 C         140.3649  140.8792  165.2018 C.ar    1  UNL1        0.1322
      4 C         138.9938  140.4307  164.7909 C.ar    1  UNL1        0.0345
      5 C         138.4430  140.8309  163.4543 C.ar    1  UNL1        0.0094
      6 C         139.2634  141.6796  162.5286 C.ar    1  UNL1        0.0769
      7 N         140.9157  140.4790  166.5384 N.pl3   1  UNL1       -0.2932
      8 C         142.1920  139.6951  166.6194 C.3     1  UNL1        0.0922
      9 C         142.7428  139.2949  167.9560 C.3     1  UNL1        0.0215
     10 C         142.0173  139.6786  169.2116 C.3     1  UNL1        0.0038
     11 C         140.7411  140.4626  169.1306 C.3     1  UNL1        0.0254
     12 C         140.1902  140.8628  167.7940 C.3     1  UNL1        0.0925
     13 C         140.0156  140.8463  170.3861 C.3     1  UNL1        0.0434
     14 C         140.3491  142.1328  171.0816 C.2     1  UNL1        0.0504
     15 O         139.3544  143.2554  171.0996 O.co2   1  UNL1       -0.5492
     16 O         141.6774  142.2968  171.7590 O.co2   1  UNL1       -0.5492
     17 C         138.7125  142.0797  161.1920 C.2     1  UNL1        0.2478
     18 O         137.7082  143.1898  161.0965 O.2     1  UNL1       -0.2701
     19 N         139.1661  141.3699  159.9509 N.am    1  UNL1       -0.3024
     20 H         139.8253  140.6413  160.0136 H       1  UNL1        0.1497
     21 C         138.6153  141.7700  158.6143 C.3     1  UNL1        0.0719
     22 C         137.5774  140.9184  157.9454 C.3     1  UNL1        0.0196
     23 C         137.0266  141.3186  156.6087 C.3     1  UNL1        0.0017
     24 C         137.5138  142.5703  155.9411 C.3     1  UNL1        0.0001
     25 C         138.5517  143.4219  156.6100 C.3     1  UNL1        0.0017
     26 C         139.1025  143.0218  157.9466 C.3     1  UNL1        0.0196
     27 S         141.4548  142.9767  162.0139 S.3     1  UNL1       -0.0948
     28 C         141.8725  144.3551  162.4325 C.3     1  UNL1        0.0637
     29 C         139.8912  145.9760  161.9881 C.3     1  UNL1        0.0009
     30 C         140.8494  145.3265  162.9422 C.3     1  UNL1        0.0120
@<TRIPOS>UNITY_ATOM_ATTR
15 1
charge -1
@<TRIPOS>BOND
     1    29    30    1
     2    30    28    1
     3    28    27    1
     4    27     1    1
     5     1     2   ar
     6     2     3   ar
     7     3     7    1
     8     7     8    1
     9     8     9    1
    10     9    10    1
    11    10    11    1
    12    11    13    1
    13    13    14    1
    14    14    15   ar
    15    14    16   ar
    16    11    12    1
    17     3     4   ar
    18     4     5   ar
    19     5     6   ar
    20     6    17    1
    21    17    18    2
    22    17    19   am
    23    19    21    1
    24    21    22    1
    25    22    23    1
    26    23    24    1
    27    24    25    1
    28    25    26    1
    29     6     1   ar
    30    26    21    1
    31    12     7    1
    32    19    20    1
@<TRIPOS>MOLECULE
*****
 30 32 0 0 0
SMALL
GASTEIGER

@<TRIPOS>ATOM
      1 C         140.8900  143.0303  162.6001 C.ar    1  UNL1        0.1124
      2 N         140.6772  142.2074  163.8360 N.ar    1  UNL1       -0.2243
      3 C         139.3126  141.6726  164.1552 C.ar    1  UNL1        0.1322
      4 C         138.1608  141.9607  163.2386 C.ar    1  UNL1        0.0345
      5 C         138.3736  142.7836  162.0027 C.ar    1  UNL1        0.0094
      6 C         139.7382  143.3184  161.6834 C.ar    1  UNL1        0.0769
      7 N         139.0998  140.8496  165.3912 N.pl3   1  UNL1       -0.2932
      8 C         138.0860  139.7441  165.3908 C.3     1  UNL1        0.0922
      9 C         137.8732  138.9211  166.6267 C.3     1  UNL1        0.0215
     10 C         138.6742  139.2038  167.8631 C.3     1  UNL1        0.0038
     11 C         139.6880  140.3093  167.8635 C.3     1  UNL1        0.0254
     12 C         139.9008  141.1323  166.6275 C.3     1  UNL1        0.0925
     13 C         140.4890  140.5919  169.0998 C.3     1  UNL1        0.0434
     14 C         139.7914  140.9190  170.3868 C.2     1  UNL1        0.0504
     15 O         138.2945  140.8631  170.4638 O.co2   1  UNL1       -0.5492
     16 O         140.5909  141.3020  171.5969 O.co2   1  UNL1       -0.5492
     17 C         139.9510  144.1413  160.4475 C.2     1  UNL1        0.2478
     18 O         139.7698  145.6295  160.4969 O.2     1  UNL1       -0.2701
     19 N         140.3450  143.4760  159.1621 N.am    1  UNL1       -0.3024
     20 H         140.4639  142.4993  159.1297 H       1  UNL1        0.1497
     21 C         140.5578  144.2989  157.9262 C.3     1  UNL1        0.0719
     22 C         139.5030  144.3380  156.8604 C.3     1  UNL1        0.0196
     23 C         139.7159  145.1609  155.6244 C.3     1  UNL1        0.0017
     24 C         140.9834  145.9447  155.4543 C.3     1  UNL1        0.0001
     25 C         142.0382  145.9056  156.5201 C.3     1  UNL1        0.0017
     26 C         141.8254  145.0827  157.7560 C.3     1  UNL1        0.0196
     27 S         142.2546  143.5650  162.2809 S.3     1  UNL1       -0.0948
     28 C         142.7143  144.8577  162.8872 C.3     1  UNL1        0.0637
     29 C         144.0651  143.5402  164.6731 C.3     1  UNL1        0.0009
     30 C         143.6044  144.8452  164.0945 C.3     1  UNL1        0.0120
@<TRIPOS>UNITY_ATOM_ATTR
15 1
charge -1
@<TRIPOS>BOND
     1    29    30    1
     2    30    28    1
     3    28    27    1
     4    27     1    1
     5     1     2   ar
     6     2     3   ar
     7     3     7    1
     8     7     8    1
     9     8     9    1
    10     9    10    1
    11    10    11    1
    12    11    13    1
    13    13    14    1
    14    14    15   ar
    15    14    16   ar
    16    11    12    1
    17     3     4   ar
    18     4     5   ar
    19     5     6   ar
    20     6    17    1
    21    17    18    2
    22    17    19   am
    23    19    21    1
    24    21    22    1
    25    22    23    1
    26    23    24    1
    27    24    25    1
    28    25    26    1
    29     6     1   ar
    30    26    21    1
    31    12     7    1
    32    19    20    1
@<TRIPOS>MOLECULE
*****
 30 32 0 0 0
SMALL
GASTEIGER

@<TRIPOS>ATOM
      1 C         142.4803  140.4580  162.6348 C.ar    1  UNL1        0.1124
      2 N         142.0136  140.6909  164.0412 N.ar    1  UNL1       -0.2243
      3 C         141.6454  139.5263  164.9118 C.ar    1  UNL1        0.1322
      4 C         141.7438  138.1287  164.3761 C.ar    1  UNL1        0.0345
      5 C         142.2106  137.8958  162.9697 C.ar    1  UNL1        0.0094
      6 C         142.5788  139.0605  162.0991 C.ar    1  UNL1        0.0769
      7 N         141.1786  139.7593  166.3182 N.pl3   1  UNL1       -0.2932
      8 C         139.7208  139.6465  166.6530 C.3     1  UNL1        0.0922
      9 C         139.2541  139.8794  168.0594 C.3     1  UNL1        0.0215
     10 C         140.2452  140.2252  169.1310 C.3     1  UNL1        0.0038
     11 C         141.7030  140.3380  168.7962 C.3     1  UNL1        0.0254
     12 C         142.1697  140.1050  167.3898 C.3     1  UNL1        0.0925
     13 C         142.6940  140.6837  169.8677 C.3     1  UNL1        0.0434
     14 C         143.0479  142.1180  170.1275 C.2     1  UNL1        0.0504
     15 O         142.2463  142.9227  171.1071 O.co2   1  UNL1       -0.5492
     16 O         144.2035  142.7476  169.4075 O.co2   1  UNL1       -0.5492
     17 C         143.0455  138.8275  160.6927 C.2     1  UNL1        0.2478
     18 O         144.5133  138.7893  160.3862 O.2     1  UNL1       -0.2701
     19 N         142.0443  138.6327  159.5928 N.am    1  UNL1       -0.3024
     20 H         141.0809  138.6577  159.7940 H       1  UNL1        0.1497
     21 C         142.5110  138.3997  158.1864 C.3     1  UNL1        0.0719
     22 C         142.6619  137.0001  157.6684 C.3     1  UNL1        0.0196
     23 C         143.1285  136.7672  156.2619 C.3     1  UNL1        0.0017
     24 C         143.4443  137.9338  155.3736 C.3     1  UNL1        0.0001
     25 C         143.2935  139.3334  155.8916 C.3     1  UNL1        0.0017
     26 C         142.8268  139.5664  157.2980 C.3     1  UNL1        0.0196
     27 S         142.8485  141.6227  161.7642 S.3     1  UNL1       -0.0948
     28 C         144.2710  142.0949  161.7053 C.3     1  UNL1        0.0637
     29 C         145.7825  141.5191  163.7385 C.3     1  UNL1        0.0009
     30 C         144.9742  142.5157  162.9617 C.3     1  UNL1        0.0120
@<TRIPOS>UNITY_ATOM_ATTR
15 1
charge -1
@<TRIPOS>BOND
     1    29    30    1
     2    30    28    1
     3    28    27    1
     4    27     1    1
     5     1     2   ar
     6     2     3   ar
     7     3     7    1
     8     7     8    1
     9     8     9    1
    10     9    10    1
    11    10    11    1
    12    11    13    1
    13    13    14    1
    14    14    15   ar
    15    14    16   ar
    16    11    12    1
    17     3     4   ar
    18     4     5   ar
    19     5     6   ar
    20     6    17    1
    21    17    18    2
    22    17    19   am
    23    19    21    1
    24    21    22    1
    25    22    23    1
    26    23    24    1
    27    24    25    1
    28    25    26    1
    29     6     1   ar
    30    26    21    1
    31    12     7    1
    32    19    20    1
@<TRIPOS>MOLECULE
*****
 30 32 0 0 0
SMALL
GASTEIGER

@<TRIPOS>ATOM
      1 C         143.5464  140.3944  163.2904 C.ar    1  UNL1        0.1124
      2 N         142.8377  140.3959  164.6124 N.ar    1  UNL1       -0.2243
      3 C         141.3890  140.0144  164.6872 C.ar    1  UNL1        0.1322
      4 C         140.6489  139.6314  163.4400 C.ar    1  UNL1        0.0345
      5 C         141.3576  139.6299  162.1180 C.ar    1  UNL1        0.0094
      6 C         142.8063  140.0114  162.0432 C.ar    1  UNL1        0.0769
      7 N         140.6803  140.0159  166.0093 N.pl3   1  UNL1       -0.2932
      8 C         139.3220  139.3915  166.1329 C.3     1  UNL1        0.0922
      9 C         138.6134  139.3930  167.4549 C.3     1  UNL1        0.0215
     10 C         139.2630  140.0190  168.6534 C.3     1  UNL1        0.0038
     11 C         140.6212  140.6434  168.5298 C.3     1  UNL1        0.0254
     12 C         141.3299  140.6419  167.2077 C.3     1  UNL1        0.0925
     13 C         141.2708  141.2693  169.7282 C.3     1  UNL1        0.0434
     14 C         140.5635  142.3556  170.4829 C.2     1  UNL1        0.0504
     15 O         140.4348  142.2709  171.9749 O.co2   1  UNL1       -0.5492
     16 O         139.9849  143.5268  169.7455 O.co2   1  UNL1       -0.5492
     17 C         143.5150  140.0099  160.7211 C.2     1  UNL1        0.2478
     18 O         144.3614  138.8365  160.3253 O.2     1  UNL1       -0.2701
     19 N         143.3771  141.1817  159.7950 N.am    1  UNL1       -0.3024
     20 H         142.8215  141.9518  160.0548 H       1  UNL1        0.1497
     21 C         144.0857  141.1802  158.4729 C.3     1  UNL1        0.0719
     22 C         145.1647  142.1856  158.1992 C.3     1  UNL1        0.0196
     23 C         145.8733  142.1841  156.8770 C.3     1  UNL1        0.0017
     24 C         145.5029  141.1772  155.8288 C.3     1  UNL1        0.0001
     25 C         144.4239  140.1718  156.1025 C.3     1  UNL1        0.0017
     26 C         143.7153  140.1733  157.4245 C.3     1  UNL1        0.0196
     27 S         144.9951  140.7760  163.2156 S.3     1  UNL1       -0.0948
     28 C         145.3911  142.2227  163.2246 C.3     1  UNL1        0.0637
     29 C         143.9268  144.3409  163.5696 C.3     1  UNL1        0.0009
     30 C         144.4566  143.2595  162.6752 C.3     1  UNL1        0.0120
@<TRIPOS>UNITY_ATOM_ATTR
15 1
charge -1
@<TRIPOS>BOND
     1    29    30    1
     2    30    28    1
     3    28    27    1
     4    27     1    1
     5     1     2   ar
     6     2     3   ar
     7     3     7    1
     8     7     8    1
     9     8     9    1
    10     9    10    1
    11    10    11    1
    12    11    13    1
    13    13    14    1
    14    14    15   ar
    15    14    16   ar
    16    11    12    1
    17     3     4   ar
    18     4     5   ar
    19     5     6   ar
    20     6    17    1
    21    17    18    2
    22    17    19   am
    23    19    21    1
    24    21    22    1
    25    22    23    1
    26    23    24    1
    27    24    25    1
    28    25    26    1
    29     6     1   ar
    30    26    21    1
    31    12     7    1
    32    19    20    1
@<TRIPOS>MOLECULE
*****
 30 32 0 0 0
SMALL
GASTEIGER

@<TRIPOS>ATOM
      1 C         140.8103  141.4710  162.2924 C.ar    1  UNL1        0.1124
      2 N         140.9942  140.8822  163.6596 N.ar    1  UNL1       -0.2243
      3 C         141.0062  141.7747  164.8652 C.ar    1  UNL1        0.1322
      4 C         140.8343  143.2559  164.7035 C.ar    1  UNL1        0.0345
      5 C         140.6505  143.8448  163.3362 C.ar    1  UNL1        0.0094
      6 C         140.6384  142.9523  162.1307 C.ar    1  UNL1        0.0769
      7 N         141.1901  141.1857  166.2325 N.pl3   1  UNL1       -0.2932
      8 C         142.2695  140.1724  166.4737 C.3     1  UNL1        0.0922
      9 C         142.4534  139.5835  167.8409 C.3     1  UNL1        0.0215
     10 C         141.5579  140.0079  168.9670 C.3     1  UNL1        0.0038
     11 C         140.4785  141.0212  168.7258 C.3     1  UNL1        0.0254
     12 C         140.2946  141.6102  167.3585 C.3     1  UNL1        0.0925
     13 C         139.5831  141.4457  169.8519 C.3     1  UNL1        0.0434
     14 C         140.0131  142.5436  170.7790 C.2     1  UNL1        0.0504
     15 O         139.9191  143.9751  170.3408 O.co2   1  UNL1       -0.5492
     16 O         140.5370  142.2101  172.1444 O.co2   1  UNL1       -0.5492
     17 C         140.4546  143.5412  160.7634 C.2     1  UNL1        0.2478
     18 O         139.1107  143.4896  160.0991 O.2     1  UNL1       -0.2701
     19 N         141.6146  144.1817  160.0604 N.am    1  UNL1       -0.3024
     20 H         142.4966  144.2156  160.4965 H       1  UNL1        0.1497
     21 C         141.4307  144.7706  158.6932 C.3     1  UNL1        0.0719
     22 C         140.3257  145.7534  158.4423 C.3     1  UNL1        0.0196
     23 C         140.1419  146.3423  157.0749 C.3     1  UNL1        0.0017
     24 C         141.0631  145.9484  155.9587 C.3     1  UNL1        0.0001
     25 C         142.1681  144.9656  156.2096 C.3     1  UNL1        0.0017
     26 C         142.3520  144.3767  157.5768 C.3     1  UNL1        0.0196
     27 S         140.7983  140.5786  161.0868 S.3     1  UNL1       -0.0948
     28 C         139.6184  139.6911  160.8224 C.3     1  UNL1        0.0637
     29 C         139.2062  137.8271  162.5848 C.3     1  UNL1        0.0009
     30 C         139.6637  138.2451  161.2187 C.3     1  UNL1        0.0120
@<TRIPOS>UNITY_ATOM_ATTR
15 1
charge -1
@<TRIPOS>BOND
     1    29    30    1
     2    30    28    1
     3    28    27    1
     4    27     1    1
     5     1     2   ar
     6     2     3   ar
     7     3     7    1
     8     7     8    1
     9     8     9    1
    10     9    10    1
    11    10    11    1
    12    11    13    1
    13    13    14    1
    14    14    15   ar
    15    14    16   ar
    16    11    12    1
    17     3     4   ar
    18     4     5   ar
    19     5     6   ar
    20     6    17    1
    21    17    18    2
    22    17    19   am
    23    19    21    1
    24    21    22    1
    25    22    23    1
    26    23    24    1
    27    24    25    1
    28    25    26    1
    29     6     1   ar
    30    26    21    1
    31    12     7    1
    32    19    20    1
