@<TRIPOS>MOLECULE
*****
 38 43 0 0 0
SMALL
GASTEIGER

@<TRIPOS>ATOM
      1 C         142.8659  138.0273  159.4572 C.ar    1  UNL1        0.1233
      2 C         142.2281  137.8940  160.8083 C.ar    1  UNL1        0.1180
      3 N         142.7932  138.9635  161.6953 N.ar    1  UNL1       -0.2233
      4 N         143.7804  139.7578  160.8924 N.ar    1  UNL1       -0.0634
      5 N         143.8253  139.1792  159.5092 N.ar    1  UNL1       -0.1287
      6 C         142.4342  139.1977  163.1328 C.3     1  UNL1        0.1834
      7 C         143.4631  138.7725  164.1381 C.3     1  UNL1        0.0386
      8 C         143.4057  138.8707  165.6337 C.3     1  UNL1        0.0301
      9 C         142.3052  139.4183  166.4936 C.ar    1  UNL1       -0.0084
     10 C         142.6518  139.3287  167.9502 C.ar    1  UNL1       -0.0030
     11 C         141.6835  139.8238  168.9833 C.ar    1  UNL1       -0.0002
     12 C         140.3687  140.4084  168.5597 C.ar    1  UNL1        0.0013
     13 C         140.0221  140.4979  167.1030 C.ar    1  UNL1        0.0146
     14 C         140.9904  140.0029  166.0700 C.ar    1  UNL1        0.0502
     15 N         140.4513  140.1843  164.6820 N.am    1  UNL1       -0.2530
     16 C         141.0938  139.8260  163.3748 C.2     1  UNL1        0.2520
     17 O         140.2897  140.1371  162.1474 O.2     1  UNL1       -0.2724
     18 C         139.0895  140.8064  164.5889 C.3     1  UNL1        0.1263
     19 C         138.9391  142.2097  164.0808 C.ar    1  UNL1        0.0172
     20 C         139.7979  143.3055  164.6391 C.ar    1  UNL1        0.0005
     21 C         139.6476  144.7088  164.1311 C.ar    1  UNL1        0.0204
     22 C         138.6383  145.0163  163.0649 C.ar    1  UNL1        0.0989
     23 N         137.7795  143.9205  162.5066 N.ar    1  UNL1       -0.2426
     24 C         137.9299  142.5171  163.0146 C.ar    1  UNL1        0.0962
     25 C         143.0911  135.0236  156.8733 C.ar    1  UNL1        0.1547
     26 C         143.3646  135.8900  158.0668 C.ar    1  UNL1        0.0400
     27 C         142.5924  137.1608  158.2638 C.ar    1  UNL1        0.0241
     28 C         141.5467  137.5651  157.2673 C.ar    1  UNL1        0.0033
     29 C         141.2732  136.6986  156.0739 C.ar    1  UNL1        0.0207
     30 C         142.0453  135.4279  155.8769 C.ar    1  UNL1        0.0994
     31 N         141.7718  134.5614  154.6833 N.ar    1  UNL1       -0.2839
     32 C         142.0238  134.9284  153.2509 C.ar    1  UNL1        0.1826
     33 N         141.6059  133.7696  152.3951 N.ar    1  UNL1       -0.2280
     34 C         141.0957  132.6864  153.2985 C.ar    1  UNL1        0.0786
     35 C         140.5744  131.3486  152.8640 C.3     1  UNL1        0.0538
     36 C         141.1981  133.1757  154.7127 C.ar    1  UNL1        0.0963
     37 C         144.5564  133.1083  157.8400 C.3     1  UNL1        0.2525
     38 O         143.8633  133.7528  156.6763 O.3     1  UNL1       -0.4700
@<TRIPOS>BOND
     1    37    38    1
     2    38    25    1
     3    25    26   ar
     4    26    27   ar
     5    27     1    1
     6     1     2   ar
     7     2     3   ar
     8     3     6    1
     9     6     7    1
    10     7     8    1
    11     8     9    1
    12     9    10   ar
    13    10    11   ar
    14    11    12   ar
    15    12    13   ar
    16    13    14   ar
    17    14    15    1
    18    15    18    1
    19    18    19    1
    20    19    20   ar
    21    20    21   ar
    22    21    22   ar
    23    22    23   ar
    24    23    24   ar
    25    15    16   am
    26    16    17    2
    27     3     4   ar
    28     4     5   ar
    29    27    28   ar
    30    28    29   ar
    31    29    30   ar
    32    30    31    1
    33    31    32   ar
    34    32    33   ar
    35    33    34   ar
    36    34    35    1
    37    34    36   ar
    38    30    25   ar
    39    36    31   ar
    40     5     1   ar
    41    16     6    1
    42    14     9   ar
    43    24    19   ar
@<TRIPOS>MOLECULE
*****
 38 43 0 0 0
SMALL
GASTEIGER

@<TRIPOS>ATOM
      1 C         143.4459  139.6713  160.2296 C.ar    1  UNL1        0.1233
      2 C         143.2328  140.2465  161.5984 C.ar    1  UNL1        0.1180
      3 N         142.7084  139.1550  162.4836 N.ar    1  UNL1       -0.2233
      4 N         142.5974  137.9050  161.6618 N.ar    1  UNL1       -0.0634
      5 N         143.0532  138.2241  160.2688 N.ar    1  UNL1       -0.1287
      6 C         142.3567  139.2897  163.9355 C.3     1  UNL1        0.1834
      7 C         143.4130  138.8479  164.9047 C.3     1  UNL1        0.0386
      8 C         143.3686  138.8557  166.4040 C.3     1  UNL1        0.0301
      9 C         142.2572  139.3072  167.3045 C.ar    1  UNL1       -0.0084
     10 C         142.6235  139.1462  168.7502 C.ar    1  UNL1       -0.0030
     11 C         141.6482  139.5405  169.8193 C.ar    1  UNL1       -0.0002
     12 C         140.3066  140.0958  169.4429 C.ar    1  UNL1        0.0013
     13 C         139.9403  140.2567  167.9973 C.ar    1  UNL1        0.0146
     14 C         140.9156  139.8624  166.9281 C.ar    1  UNL1        0.0502
     15 N         140.3541  140.1033  165.5582 N.am    1  UNL1       -0.2530
     16 C         140.9954  139.8484  164.2263 C.2     1  UNL1        0.2520
     17 O         140.1657  140.1985  163.0268 O.2     1  UNL1       -0.2724
     18 C         138.9678  140.6746  165.5143 C.3     1  UNL1        0.1263
     19 C         138.7390  142.0454  164.9498 C.ar    1  UNL1        0.0172
     20 C         139.5222  143.2125  165.4737 C.ar    1  UNL1        0.0005
     21 C         139.2934  144.5833  164.9093 C.ar    1  UNL1        0.0204
     22 C         138.2815  144.7870  163.8210 C.ar    1  UNL1        0.0989
     23 N         137.4983  143.6199  163.2970 N.ar    1  UNL1       -0.2426
     24 C         137.7271  142.2490  163.8614 C.ar    1  UNL1        0.0962
     25 C         144.5396  140.4726  156.4999 C.ar    1  UNL1        0.1547
     26 C         144.0243  139.7309  157.6974 C.ar    1  UNL1        0.0400
     27 C         143.9612  140.4129  159.0320 C.ar    1  UNL1        0.0241
     28 C         144.4134  141.8365  159.1688 C.ar    1  UNL1        0.0033
     29 C         144.9287  142.5782  157.9712 C.ar    1  UNL1        0.0207
     30 C         144.9918  141.8962  156.6367 C.ar    1  UNL1        0.0994
     31 N         145.5071  142.6380  155.4390 N.ar    1  UNL1       -0.2839
     32 C         144.6711  143.2561  154.3578 C.ar    1  UNL1        0.1826
     33 N         145.5963  143.8919  153.3630 N.ar    1  UNL1       -0.2280
     34 C         147.0040  143.6668  153.8293 C.ar    1  UNL1        0.0786
     35 C         148.2484  144.1345  153.1345 C.3     1  UNL1        0.0538
     36 C         146.9489  142.8918  155.1124 C.ar    1  UNL1        0.0963
     37 C         144.6838  138.2947  155.0906 C.3     1  UNL1        0.2525
     38 O         144.6027  139.7906  155.1653 O.3     1  UNL1       -0.4700
@<TRIPOS>BOND
     1    37    38    1
     2    38    25    1
     3    25    26   ar
     4    26    27   ar
     5    27     1    1
     6     1     2   ar
     7     2     3   ar
     8     3     6    1
     9     6     7    1
    10     7     8    1
    11     8     9    1
    12     9    10   ar
    13    10    11   ar
    14    11    12   ar
    15    12    13   ar
    16    13    14   ar
    17    14    15    1
    18    15    18    1
    19    18    19    1
    20    19    20   ar
    21    20    21   ar
    22    21    22   ar
    23    22    23   ar
    24    23    24   ar
    25    15    16   am
    26    16    17    2
    27     3     4   ar
    28     4     5   ar
    29    27    28   ar
    30    28    29   ar
    31    29    30   ar
    32    30    31    1
    33    31    32   ar
    34    32    33   ar
    35    33    34   ar
    36    34    35    1
    37    34    36   ar
    38    30    25   ar
    39    36    31   ar
    40     5     1   ar
    41    16     6    1
    42    14     9   ar
    43    24    19   ar
@<TRIPOS>MOLECULE
*****
 38 43 0 0 0
SMALL
GASTEIGER

@<TRIPOS>ATOM
      1 C         142.8902  137.1834  157.5878 C.ar    1  UNL1        0.1233
      2 C         142.6438  137.4465  159.0438 C.ar    1  UNL1        0.1180
      3 N         143.0315  138.8670  159.3303 N.ar    1  UNL1       -0.2233
      4 N         143.5176  139.4817  158.0513 N.ar    1  UNL1       -0.0634
      5 N         143.4302  138.4412  156.9743 N.ar    1  UNL1       -0.1287
      6 C         142.9479  139.5523  160.6619 C.3     1  UNL1        0.1834
      7 C         144.1413  139.3864  161.5553 C.3     1  UNL1        0.0386
      8 C         144.3634  139.9402  162.9315 C.3     1  UNL1        0.0301
      9 C         143.4471  140.7966  163.7543 C.ar    1  UNL1       -0.0084
     10 C         144.0571  141.1331  165.0827 C.ar    1  UNL1       -0.0030
     11 C         143.3022  141.9837  166.0607 C.ar    1  UNL1       -0.0002
     12 C         141.9373  142.4979  165.7103 C.ar    1  UNL1        0.0013
     13 C         141.3273  142.1614  164.3819 C.ar    1  UNL1        0.0146
     14 C         142.0822  141.3108  163.4039 C.ar    1  UNL1        0.0502
     15 N         141.2966  141.0955  162.1443 N.am    1  UNL1       -0.2530
     16 C         141.6818  140.3130  160.9240 C.2     1  UNL1        0.2520
     17 O         140.6669  140.2876  159.8198 O.2     1  UNL1       -0.2724
     18 C         139.9474  141.7493  162.0991 C.3     1  UNL1        0.1263
     19 C         139.8367  143.2246  161.8513 C.ar    1  UNL1        0.0172
     20 C         140.8538  143.9197  160.9956 C.ar    1  UNL1        0.0005
     21 C         140.7431  145.3950  160.7478 C.ar    1  UNL1        0.0204
     22 C         139.6154  146.1751  161.3558 C.ar    1  UNL1        0.0989
     23 N         138.5983  145.4799  162.2115 N.ar    1  UNL1       -0.2426
     24 C         138.7089  144.0046  162.4593 C.ar    1  UNL1        0.0962
     25 C         143.0724  133.3408  156.6125 C.ar    1  UNL1        0.1547
     26 C         143.3223  134.6345  157.3293 C.ar    1  UNL1        0.0400
     27 C         142.6404  135.8896  156.8710 C.ar    1  UNL1        0.0241
     28 C         141.7088  135.8509  155.6961 C.ar    1  UNL1        0.0033
     29 C         141.4590  134.5571  154.9793 C.ar    1  UNL1        0.0207
     30 C         142.1408  133.3021  155.4376 C.ar    1  UNL1        0.0994
     31 N         141.8910  132.0083  154.7208 N.ar    1  UNL1       -0.2839
     32 C         142.7915  131.3774  153.7004 C.ar    1  UNL1        0.1826
     33 N         142.1538  130.0975  153.2476 N.ar    1  UNL1       -0.2280
     34 C         140.8592  129.9372  153.9880 C.ar    1  UNL1        0.0786
     35 C         139.8961  128.7964  153.8434 C.3     1  UNL1        0.0538
     36 C         140.6968  131.1182  154.8985 C.ar    1  UNL1        0.0963
     37 C         145.0421  132.1682  157.8354 C.3     1  UNL1        0.2525
     38 O         143.7543  132.0858  157.0707 O.3     1  UNL1       -0.4700
@<TRIPOS>BOND
     1    37    38    1
     2    38    25    1
     3    25    26   ar
     4    26    27   ar
     5    27     1    1
     6     1     2   ar
     7     2     3   ar
     8     3     6    1
     9     6     7    1
    10     7     8    1
    11     8     9    1
    12     9    10   ar
    13    10    11   ar
    14    11    12   ar
    15    12    13   ar
    16    13    14   ar
    17    14    15    1
    18    15    18    1
    19    18    19    1
    20    19    20   ar
    21    20    21   ar
    22    21    22   ar
    23    22    23   ar
    24    23    24   ar
    25    15    16   am
    26    16    17    2
    27     3     4   ar
    28     4     5   ar
    29    27    28   ar
    30    28    29   ar
    31    29    30   ar
    32    30    31    1
    33    31    32   ar
    34    32    33   ar
    35    33    34   ar
    36    34    35    1
    37    34    36   ar
    38    30    25   ar
    39    36    31   ar
    40     5     1   ar
    41    16     6    1
    42    14     9   ar
    43    24    19   ar
@<TRIPOS>MOLECULE
*****
 38 43 0 0 0
SMALL
GASTEIGER

@<TRIPOS>ATOM
      1 C         143.1100  136.7311  156.6285 C.ar    1  UNL1        0.1233
      2 C         142.4945  137.5794  157.7016 C.ar    1  UNL1        0.1180
      3 N         143.1094  138.9453  157.6225 N.ar    1  UNL1       -0.2233
      4 N         144.1049  138.9412  156.5005 N.ar    1  UNL1       -0.0634
      5 N         144.1053  137.5727  155.8862 N.ar    1  UNL1       -0.1287
      6 C         142.7855  140.1107  158.5096 C.3     1  UNL1        0.1834
      7 C         141.8204  141.1103  157.9445 C.3     1  UNL1        0.0386
      8 C         141.3010  142.3685  158.5748 C.3     1  UNL1        0.0301
      9 C         141.6185  142.9379  159.9258 C.ar    1  UNL1       -0.0084
     10 C         140.8804  144.2213  160.1669 C.ar    1  UNL1       -0.0030
     11 C         141.0577  144.9564  161.4623 C.ar    1  UNL1       -0.0002
     12 C         141.9730  144.4081  162.5166 C.ar    1  UNL1        0.0013
     13 C         142.7110  143.1248  162.2755 C.ar    1  UNL1        0.0146
     14 C         142.5338  142.3896  160.9801 C.ar    1  UNL1        0.0502
     15 N         143.3577  141.1366  160.9439 N.am    1  UNL1       -0.2530
     16 C         143.4697  140.1224  159.8445 C.2     1  UNL1        0.2520
     17 O         144.3872  138.9672  160.1157 O.2     1  UNL1       -0.2724
     18 C         144.1780  140.8615  162.1692 C.3     1  UNL1        0.1263
     19 C         143.6328  139.9814  163.2548 C.ar    1  UNL1        0.0172
     20 C         144.4744  139.6619  164.4546 C.ar    1  UNL1        0.0005
     21 C         143.9293  138.7819  165.5402 C.ar    1  UNL1        0.0204
     22 C         142.5426  138.2215  165.4259 C.ar    1  UNL1        0.0989
     23 N         141.7010  138.5411  164.2261 N.ar    1  UNL1       -0.2426
     24 C         142.2461  139.4211  163.1405 C.ar    1  UNL1        0.0962
     25 C         143.1694  132.7676  156.8189 C.ar    1  UNL1        0.1547
     26 C         143.4925  134.2050  157.1003 C.ar    1  UNL1        0.0400
     27 C         142.7869  135.2936  156.3472 C.ar    1  UNL1        0.0241
     28 C         141.7583  134.9447  155.3127 C.ar    1  UNL1        0.0033
     29 C         141.4352  133.5072  155.0314 C.ar    1  UNL1        0.0207
     30 C         142.1407  132.4187  155.7845 C.ar    1  UNL1        0.0994
     31 N         141.8176  130.9811  155.5031 N.ar    1  UNL1       -0.2839
     32 C         142.7251  129.8106  155.7404 C.ar    1  UNL1        0.1826
     33 N         141.9986  128.5679  155.3189 N.ar    1  UNL1       -0.2280
     34 C         140.6420  128.9702  154.8212 C.ar    1  UNL1        0.0786
     35 C         139.5832  128.0438  154.3009 C.3     1  UNL1        0.0538
     36 C         140.5301  130.4617  154.9350 C.ar    1  UNL1        0.0963
     37 C         145.3129  131.8485  157.9636 C.3     1  UNL1        0.2525
     38 O         143.8749  131.6790  157.5720 O.3     1  UNL1       -0.4700
@<TRIPOS>BOND
     1    37    38    1
     2    38    25    1
     3    25    26   ar
     4    26    27   ar
     5    27     1    1
     6     1     2   ar
     7     2     3   ar
     8     3     6    1
     9     6     7    1
    10     7     8    1
    11     8     9    1
    12     9    10   ar
    13    10    11   ar
    14    11    12   ar
    15    12    13   ar
    16    13    14   ar
    17    14    15    1
    18    15    18    1
    19    18    19    1
    20    19    20   ar
    21    20    21   ar
    22    21    22   ar
    23    22    23   ar
    24    23    24   ar
    25    15    16   am
    26    16    17    2
    27     3     4   ar
    28     4     5   ar
    29    27    28   ar
    30    28    29   ar
    31    29    30   ar
    32    30    31    1
    33    31    32   ar
    34    32    33   ar
    35    33    34   ar
    36    34    35    1
    37    34    36   ar
    38    30    25   ar
    39    36    31   ar
    40     5     1   ar
    41    16     6    1
    42    14     9   ar
    43    24    19   ar
@<TRIPOS>MOLECULE
*****
 38 43 0 0 0
SMALL
GASTEIGER

@<TRIPOS>ATOM
      1 C         142.8194  138.8284  160.8456 C.ar    1  UNL1        0.1233
      2 C         142.3835  137.6733  159.9936 C.ar    1  UNL1        0.1180
      3 N         142.9412  137.8768  158.6161 N.ar    1  UNL1       -0.2233
      4 N         143.7219  139.1577  158.6168 N.ar    1  UNL1       -0.0634
      5 N         143.6466  139.7458  159.9946 N.ar    1  UNL1       -0.1287
      6 C         142.7517  136.9604  157.4438 C.3     1  UNL1        0.1834
      7 C         143.2635  135.5617  157.6218 C.3     1  UNL1        0.0386
      8 C         143.2254  134.4211  156.6484 C.3     1  UNL1        0.0301
      9 C         142.6661  134.3973  155.2567 C.ar    1  UNL1       -0.0084
     10 C         142.8316  133.0481  154.6225 C.ar    1  UNL1       -0.0030
     11 C         142.3378  132.8100  153.2264 C.ar    1  UNL1       -0.0002
     12 C         141.6784  133.9212  152.4644 C.ar    1  UNL1        0.0013
     13 C         141.5128  135.2704  153.0986 C.ar    1  UNL1        0.0146
     14 C         142.0067  135.5084  154.4948 C.ar    1  UNL1        0.0502
     15 N         141.7438  136.9177  154.9363 N.am    1  UNL1       -0.2530
     16 C         142.0753  137.5639  156.2487 C.2     1  UNL1        0.2520
     17 O         141.6780  139.0040  156.3838 O.2     1  UNL1       -0.2724
     18 C         141.0588  137.7970  153.9325 C.3     1  UNL1        0.1263
     19 C         139.5631  137.7815  153.8187 C.ar    1  UNL1        0.0172
     20 C         138.9105  137.9845  152.4835 C.ar    1  UNL1        0.0005
     21 C         137.4149  137.9690  152.3696 C.ar    1  UNL1        0.0204
     22 C         136.5720  137.7504  153.5910 C.ar    1  UNL1        0.0989
     23 N         137.2247  137.5474  154.9263 N.ar    1  UNL1       -0.2426
     24 C         138.7203  137.5630  155.0402 C.ar    1  UNL1        0.0962
     25 C         142.2416  140.6020  164.3484 C.ar    1  UNL1        0.1547
     26 C         142.5744  140.3999  162.8999 C.ar    1  UNL1        0.0400
     27 C         142.4865  139.0305  162.2941 C.ar    1  UNL1        0.0241
     28 C         142.0657  137.8632  163.1369 C.ar    1  UNL1        0.0033
     29 C         141.7329  138.0653  164.5855 C.ar    1  UNL1        0.0207
     30 C         141.8208  139.4347  165.1912 C.ar    1  UNL1        0.0994
     31 N         141.4879  139.6367  166.6398 N.ar    1  UNL1       -0.2839
     32 C         142.4450  139.5208  167.7890 C.ar    1  UNL1        0.1826
     33 N         141.6881  139.8026  169.0529 N.ar    1  UNL1       -0.2280
     34 C         140.2632  140.0928  168.6850 C.ar    1  UNL1        0.0786
     35 C         139.1563  140.4268  169.6406 C.3     1  UNL1        0.0538
     36 C         140.1394  139.9902  167.1936 C.ar    1  UNL1        0.0963
     37 C         143.6097  142.4311  165.5863 C.3     1  UNL1        0.2525
     38 O         142.3295  141.9714  164.9542 O.3     1  UNL1       -0.4700
@<TRIPOS>BOND
     1    37    38    1
     2    38    25    1
     3    25    26   ar
     4    26    27   ar
     5    27     1    1
     6     1     2   ar
     7     2     3   ar
     8     3     6    1
     9     6     7    1
    10     7     8    1
    11     8     9    1
    12     9    10   ar
    13    10    11   ar
    14    11    12   ar
    15    12    13   ar
    16    13    14   ar
    17    14    15    1
    18    15    18    1
    19    18    19    1
    20    19    20   ar
    21    20    21   ar
    22    21    22   ar
    23    22    23   ar
    24    23    24   ar
    25    15    16   am
    26    16    17    2
    27     3     4   ar
    28     4     5   ar
    29    27    28   ar
    30    28    29   ar
    31    29    30   ar
    32    30    31    1
    33    31    32   ar
    34    32    33   ar
    35    33    34   ar
    36    34    35    1
    37    34    36   ar
    38    30    25   ar
    39    36    31   ar
    40     5     1   ar
    41    16     6    1
    42    14     9   ar
    43    24    19   ar
@<TRIPOS>MOLECULE
*****
 38 43 0 0 0
SMALL
GASTEIGER

@<TRIPOS>ATOM
      1 C         142.3163  138.8580  160.9235 C.ar    1  UNL1        0.1233
      2 C         141.3219  138.3655  159.9142 C.ar    1  UNL1        0.1180
      3 N         142.0018  138.3196  158.5779 N.ar    1  UNL1       -0.2233
      4 N         143.4163  138.7836  158.7614 N.ar    1  UNL1       -0.0634
      5 N         143.6107  139.1164  160.2110 N.ar    1  UNL1       -0.1287
      6 C         141.3768  137.8858  157.2851 C.3     1  UNL1        0.1834
      7 C         140.0664  138.5324  156.9465 C.3     1  UNL1        0.0386
      8 C         139.2004  138.3156  155.7411 C.3     1  UNL1        0.0301
      9 C         139.4309  137.3988  154.5765 C.ar    1  UNL1       -0.0084
     10 C         138.3130  137.4864  153.5803 C.ar    1  UNL1       -0.0030
     11 C         138.3485  136.6474  152.3374 C.ar    1  UNL1       -0.0002
     12 C         139.5020  135.7208  152.0907 C.ar    1  UNL1        0.0013
     13 C         140.6200  135.6332  153.0869 C.ar    1  UNL1        0.0146
     14 C         140.5844  136.4722  154.3298 C.ar    1  UNL1        0.0502
     15 N         141.7922  136.2336  155.1867 N.am    1  UNL1       -0.2530
     16 C         142.1449  136.8627  156.5020 C.2     1  UNL1        0.2520
     17 O         143.4364  136.4087  157.1151 O.2     1  UNL1       -0.2724
     18 C         142.7777  135.2337  154.6585 C.3     1  UNL1        0.1263
     19 C         142.7779  133.8297  155.1866 C.ar    1  UNL1        0.0172
     20 C         141.6164  132.9229  154.9062 C.ar    1  UNL1        0.0005
     21 C         141.6165  131.5189  155.4342 C.ar    1  UNL1        0.0204
     22 C         142.7781  131.0217  156.2427 C.ar    1  UNL1        0.0989
     23 N         143.9396  131.9286  156.5231 N.ar    1  UNL1       -0.2426
     24 C         143.9395  133.3326  155.9951 C.ar    1  UNL1        0.0962
     25 C         141.9521  140.6193  164.4611 C.ar    1  UNL1        0.1547
     26 C         142.2074  140.4203  162.9965 C.ar    1  UNL1        0.0400
     27 C         142.0610  139.0570  162.3882 C.ar    1  UNL1        0.0241
     28 C         141.6594  137.8928  163.2445 C.ar    1  UNL1        0.0033
     29 C         141.4042  138.0919  164.7091 C.ar    1  UNL1        0.0207
     30 C         141.5505  139.4551  165.3174 C.ar    1  UNL1        0.0994
     31 N         141.2952  139.6541  166.7822 N.ar    1  UNL1       -0.2839
     32 C         142.3140  139.5444  167.8776 C.ar    1  UNL1        0.1826
     33 N         141.6247  139.8203  169.1809 N.ar    1  UNL1       -0.2280
     34 C         140.1800  140.1003  168.8911 C.ar    1  UNL1        0.0786
     35 C         139.1242  140.4260  169.9056 C.3     1  UNL1        0.0538
     36 C         139.9763  139.9976  167.4085 C.ar    1  UNL1        0.0963
     37 C         143.4477  142.4650  165.5131 C.3     1  UNL1        0.2525
     38 O         142.0984  141.9826  165.0695 O.3     1  UNL1       -0.4700
@<TRIPOS>BOND
     1    37    38    1
     2    38    25    1
     3    25    26   ar
     4    26    27   ar
     5    27     1    1
     6     1     2   ar
     7     2     3   ar
     8     3     6    1
     9     6     7    1
    10     7     8    1
    11     8     9    1
    12     9    10   ar
    13    10    11   ar
    14    11    12   ar
    15    12    13   ar
    16    13    14   ar
    17    14    15    1
    18    15    18    1
    19    18    19    1
    20    19    20   ar
    21    20    21   ar
    22    21    22   ar
    23    22    23   ar
    24    23    24   ar
    25    15    16   am
    26    16    17    2
    27     3     4   ar
    28     4     5   ar
    29    27    28   ar
    30    28    29   ar
    31    29    30   ar
    32    30    31    1
    33    31    32   ar
    34    32    33   ar
    35    33    34   ar
    36    34    35    1
    37    34    36   ar
    38    30    25   ar
    39    36    31   ar
    40     5     1   ar
    41    16     6    1
    42    14     9   ar
    43    24    19   ar
@<TRIPOS>MOLECULE
*****
 38 43 0 0 0
SMALL
GASTEIGER

@<TRIPOS>ATOM
      1 C         143.5310  142.7496  161.0916 C.ar    1  UNL1        0.1233
      2 C         144.4693  142.1025  160.1165 C.ar    1  UNL1        0.1180
      3 N         144.2661  142.7494  158.7785 N.ar    1  UNL1       -0.2233
      4 N         143.2022  143.7963  158.9267 N.ar    1  UNL1       -0.0634
      5 N         142.7478  143.7964  160.3562 N.ar    1  UNL1       -0.1287
      6 C         144.9983  142.4092  157.5143 C.3     1  UNL1        0.1834
      7 C         146.4144  142.8970  157.4310 C.3     1  UNL1        0.0386
      8 C         147.3994  142.7221  156.3134 C.3     1  UNL1        0.0301
      9 C         147.2118  142.0165  155.0031 C.ar    1  UNL1       -0.0084
     10 C         148.4555  142.0744  154.1664 C.ar    1  UNL1       -0.0030
     11 C         148.4800  141.4272  152.8135 C.ar    1  UNL1       -0.0002
     12 C         147.2609  140.7220  152.2972 C.ar    1  UNL1        0.0013
     13 C         146.0173  140.6641  153.1339 C.ar    1  UNL1        0.0146
     14 C         145.9928  141.3113  154.4868 C.ar    1  UNL1        0.0502
     15 N         144.6602  141.1377  155.1533 N.am    1  UNL1       -0.2530
     16 C         144.2176  141.6262  156.5007 C.2     1  UNL1        0.2520
     17 O         142.8080  141.2870  156.8852 O.2     1  UNL1       -0.2724
     18 C         143.6346  140.3744  154.3686 C.3     1  UNL1        0.1263
     19 C         143.5088  138.8899  154.5432 C.ar    1  UNL1        0.0172
     20 C         142.4367  138.1372  153.8125 C.ar    1  UNL1        0.0005
     21 C         142.3107  136.6527  153.9870 C.ar    1  UNL1        0.0204
     22 C         143.2569  135.9210  154.8921 C.ar    1  UNL1        0.0989
     23 N         144.3291  136.6738  155.6229 N.ar    1  UNL1       -0.2426
     24 C         144.4550  138.1583  155.4484 C.ar    1  UNL1        0.0962
     25 C         142.0586  142.5162  164.7695 C.ar    1  UNL1        0.1547
     26 C         142.1905  142.8563  163.3146 C.ar    1  UNL1        0.0400
     27 C         143.3990  142.4094  162.5465 C.ar    1  UNL1        0.0241
     28 C         144.4754  141.6225  163.2334 C.ar    1  UNL1        0.0033
     29 C         144.3434  141.2823  164.6883 C.ar    1  UNL1        0.0207
     30 C         143.1351  141.7292  165.4564 C.ar    1  UNL1        0.0994
     31 N         143.0031  141.3890  166.9114 N.ar    1  UNL1       -0.2839
     32 C         143.2344  142.3253  168.0603 C.ar    1  UNL1        0.1826
     33 N         142.9909  141.5678  169.3318 N.ar    1  UNL1       -0.2280
     34 C         142.6092  140.1634  168.9688 C.ar    1  UNL1        0.0786
     35 C         142.2780  139.0626  169.9325 C.3     1  UNL1        0.0538
     36 C         142.6167  140.0529  167.4729 C.ar    1  UNL1        0.0963
     37 C         139.8959  143.9471  164.9284 C.3     1  UNL1        0.2525
     38 O         140.8501  142.9631  165.5376 O.3     1  UNL1       -0.4700
@<TRIPOS>BOND
     1    37    38    1
     2    38    25    1
     3    25    26   ar
     4    26    27   ar
     5    27     1    1
     6     1     2   ar
     7     2     3   ar
     8     3     6    1
     9     6     7    1
    10     7     8    1
    11     8     9    1
    12     9    10   ar
    13    10    11   ar
    14    11    12   ar
    15    12    13   ar
    16    13    14   ar
    17    14    15    1
    18    15    18    1
    19    18    19    1
    20    19    20   ar
    21    20    21   ar
    22    21    22   ar
    23    22    23   ar
    24    23    24   ar
    25    15    16   am
    26    16    17    2
    27     3     4   ar
    28     4     5   ar
    29    27    28   ar
    30    28    29   ar
    31    29    30   ar
    32    30    31    1
    33    31    32   ar
    34    32    33   ar
    35    33    34   ar
    36    34    35    1
    37    34    36   ar
    38    30    25   ar
    39    36    31   ar
    40     5     1   ar
    41    16     6    1
    42    14     9   ar
    43    24    19   ar
@<TRIPOS>MOLECULE
*****
 38 43 0 0 0
SMALL
GASTEIGER

@<TRIPOS>ATOM
      1 C         138.4767  139.7670  161.0071 C.ar    1  UNL1        0.1233
      2 C         139.1121  140.3347  162.2416 C.ar    1  UNL1        0.1180
      3 N         139.0123  139.3064  163.3291 N.ar    1  UNL1       -0.2233
      4 N         138.3153  138.1031  162.7667 N.ar    1  UNL1       -0.0634
      5 N         137.9842  138.3878  161.3316 N.ar    1  UNL1       -0.1287
      6 C         139.5204  139.4552  164.7325 C.3     1  UNL1        0.1834
      7 C         138.4710  139.6377  165.7887 C.3     1  UNL1        0.0386
      8 C         138.6528  139.8119  167.2674 C.3     1  UNL1        0.0301
      9 C         139.9288  139.8466  168.0552 C.ar    1  UNL1       -0.0084
     10 C         139.6641  140.0410  169.5188 C.ar    1  UNL1       -0.0030
     11 C         140.8088  140.1044  170.4860 C.ar    1  UNL1       -0.0002
     12 C         142.2182  139.9735  169.9896 C.ar    1  UNL1        0.0013
     13 C         142.4829  139.7792  168.5260 C.ar    1  UNL1        0.0146
     14 C         141.3382  139.7158  167.5588 C.ar    1  UNL1        0.0502
     15 N         141.8197  139.5178  166.1520 N.am    1  UNL1       -0.2530
     16 C         141.0108  139.4018  164.8942 C.2     1  UNL1        0.2520
     17 O         141.7959  139.2067  163.6311 O.2     1  UNL1       -0.2724
     18 C         143.3068  139.4233  165.9804 C.3     1  UNL1        0.1263
     19 C         144.0387  140.4681  165.1911 C.ar    1  UNL1        0.0172
     20 C         143.7486  141.9217  165.4211 C.ar    1  UNL1        0.0005
     21 C         144.4804  142.9665  164.6318 C.ar    1  UNL1        0.0204
     22 C         145.5023  142.5576  163.6126 C.ar    1  UNL1        0.0989
     23 N         145.7923  141.1039  163.3827 N.ar    1  UNL1       -0.2426
     24 C         145.0605  140.0591  164.1719 C.ar    1  UNL1        0.0962
     25 C         138.2073  140.3421  157.0897 C.ar    1  UNL1        0.1547
     26 C         138.3288  139.6518  158.4157 C.ar    1  UNL1        0.0400
     27 C         138.3551  140.4572  159.6809 C.ar    1  UNL1        0.0241
     28 C         138.2598  141.9529  159.6199 C.ar    1  UNL1        0.0033
     29 C         138.1382  142.6432  158.2937 C.ar    1  UNL1        0.0207
     30 C         138.1120  141.8379  157.0287 C.ar    1  UNL1        0.0994
     31 N         137.9904  142.5282  155.7025 N.ar    1  UNL1       -0.2839
     32 C         139.1023  143.2010  154.9535 C.ar    1  UNL1        0.1826
     33 N         138.5346  143.7556  153.6806 N.ar    1  UNL1       -0.2280
     34 C         137.0719  143.4255  153.6429 C.ar    1  UNL1        0.0786
     35 C         136.1138  143.7900  152.5479 C.3     1  UNL1        0.0538
     36 C         136.7355  142.6670  154.8925 C.ar    1  UNL1        0.0963
     37 C         139.4209  138.8339  155.3570 C.3     1  UNL1        0.2525
     38 O         138.1810  139.5367  155.8245 O.3     1  UNL1       -0.4700
@<TRIPOS>BOND
     1    37    38    1
     2    38    25    1
     3    25    26   ar
     4    26    27   ar
     5    27     1    1
     6     1     2   ar
     7     2     3   ar
     8     3     6    1
     9     6     7    1
    10     7     8    1
    11     8     9    1
    12     9    10   ar
    13    10    11   ar
    14    11    12   ar
    15    12    13   ar
    16    13    14   ar
    17    14    15    1
    18    15    18    1
    19    18    19    1
    20    19    20   ar
    21    20    21   ar
    22    21    22   ar
    23    22    23   ar
    24    23    24   ar
    25    15    16   am
    26    16    17    2
    27     3     4   ar
    28     4     5   ar
    29    27    28   ar
    30    28    29   ar
    31    29    30   ar
    32    30    31    1
    33    31    32   ar
    34    32    33   ar
    35    33    34   ar
    36    34    35    1
    37    34    36   ar
    38    30    25   ar
    39    36    31   ar
    40     5     1   ar
    41    16     6    1
    42    14     9   ar
    43    24    19   ar
@<TRIPOS>MOLECULE
*****
 38 43 0 0 0
SMALL
GASTEIGER

@<TRIPOS>ATOM
      1 C         139.3703  145.1890  156.0162 C.ar    1  UNL1        0.1233
      2 C         140.2903  144.6028  157.0457 C.ar    1  UNL1        0.1180
      3 N         139.7739  143.2419  157.4079 N.ar    1  UNL1       -0.2233
      4 N         138.5346  142.9870  156.6021 N.ar    1  UNL1       -0.0634
      5 N         138.2851  144.1903  155.7421 N.ar    1  UNL1       -0.1287
      6 C         140.3887  142.3011  158.4013 C.3     1  UNL1        0.1834
      7 C         141.6681  141.6461  157.9719 C.3     1  UNL1        0.0386
      8 C         142.5175  140.6680  158.7279 C.3     1  UNL1        0.0301
      9 C         142.2976  140.1032  160.1000 C.ar    1  UNL1       -0.0084
     10 C         143.3920  139.1515  160.4828 C.ar    1  UNL1       -0.0030
     11 C         143.3625  138.4737  161.8206 C.ar    1  UNL1       -0.0002
     12 C         142.2386  138.7475  162.7755 C.ar    1  UNL1        0.0013
     13 C         141.1442  139.6992  162.3927 C.ar    1  UNL1        0.0146
     14 C         141.1737  140.3770  161.0550 C.ar    1  UNL1        0.0502
     15 N         139.9923  141.2833  160.8736 N.am    1  UNL1       -0.2530
     16 C         139.6429  142.1396  159.6927 C.2     1  UNL1        0.2520
     17 O         138.3809  142.9403  159.8199 O.2     1  UNL1       -0.2724
     18 C         139.0334  141.3410  162.0257 C.3     1  UNL1        0.1263
     19 C         139.0590  142.5101  162.9652 C.ar    1  UNL1        0.0172
     20 C         137.8043  142.9337  163.6695 C.ar    1  UNL1        0.0005
     21 C         137.8298  144.1028  164.6090 C.ar    1  UNL1        0.0204
     22 C         139.1101  144.8483  164.8440 C.ar    1  UNL1        0.0989
     23 N         140.3648  144.4246  164.1396 N.ar    1  UNL1       -0.2426
     24 C         140.3393  143.2555  163.2001 C.ar    1  UNL1        0.0962
     25 C         138.8987  149.0603  155.2814 C.ar    1  UNL1        0.1547
     26 C         138.7582  147.7122  155.9239 C.ar    1  UNL1        0.0400
     27 C         139.5107  146.5371  155.3737 C.ar    1  UNL1        0.0241
     28 C         140.4036  146.7100  154.1809 C.ar    1  UNL1        0.0033
     29 C         140.5441  148.0582  153.5384 C.ar    1  UNL1        0.0207
     30 C         139.7916  149.2332  154.0886 C.ar    1  UNL1        0.0994
     31 N         139.9321  150.5814  153.4460 N.ar    1  UNL1       -0.2839
     32 C         139.1388  151.0886  152.2784 C.ar    1  UNL1        0.1826
     33 N         139.6070  152.4796  151.9691 N.ar    1  UNL1       -0.2280
     34 C         140.6896  152.8322  152.9455 C.ar    1  UNL1        0.0786
     35 C         141.4396  154.1301  152.9997 C.3     1  UNL1        0.0538
     36 C         140.8905  151.6591  153.8584 C.ar    1  UNL1        0.0963
     37 C         138.7961  151.1375  156.8385 C.3     1  UNL1        0.2525
     38 O         138.1462  150.2355  155.8317 O.3     1  UNL1       -0.4700
@<TRIPOS>BOND
     1    37    38    1
     2    38    25    1
     3    25    26   ar
     4    26    27   ar
     5    27     1    1
     6     1     2   ar
     7     2     3   ar
     8     3     6    1
     9     6     7    1
    10     7     8    1
    11     8     9    1
    12     9    10   ar
    13    10    11   ar
    14    11    12   ar
    15    12    13   ar
    16    13    14   ar
    17    14    15    1
    18    15    18    1
    19    18    19    1
    20    19    20   ar
    21    20    21   ar
    22    21    22   ar
    23    22    23   ar
    24    23    24   ar
    25    15    16   am
    26    16    17    2
    27     3     4   ar
    28     4     5   ar
    29    27    28   ar
    30    28    29   ar
    31    29    30   ar
    32    30    31    1
    33    31    32   ar
    34    32    33   ar
    35    33    34   ar
    36    34    35    1
    37    34    36   ar
    38    30    25   ar
    39    36    31   ar
    40     5     1   ar
    41    16     6    1
    42    14     9   ar
    43    24    19   ar
