@<TRIPOS>MOLECULE
*****
 32 35 0 0 0
SMALL
GASTEIGER

@<TRIPOS>ATOM
      1 O         143.9075  139.8317  161.4927 O.2     1  UNL1       -0.2701
      2 C         143.0950  140.1444  160.2712 C.2     1  UNL1        0.2474
      3 N         141.6213  139.8652  160.2591 N.am    1  UNL1       -0.2986
      4 H         141.0880  140.0704  159.4574 H       1  UNL1        0.1498
      5 C         140.9600  139.2733  161.4684 C.3     1  UNL1        0.1200
      6 C         141.0092  137.7923  161.7008 C.3     1  UNL1        0.2250
      7 O         140.3480  137.2005  162.9101 O.3     1  UNL1       -0.4740
      8 C         139.6375  138.0898  163.8871 C.ar    1  UNL1        0.1346
      9 C         138.9763  137.4979  165.0965 C.ar    1  UNL1        0.0366
     10 C         138.2658  138.3872  166.0734 C.ar    1  UNL1        0.0031
     11 C         138.2167  139.8683  165.8410 C.ar    1  UNL1       -0.0001
     12 C         138.8779  140.4601  164.6317 C.ar    1  UNL1       -0.0009
     13 C         139.5883  139.5708  163.6547 C.ar    1  UNL1        0.0136
     14 C         140.2496  140.1626  162.4454 C.3     1  UNL1        0.0528
     15 C         138.8287  141.9411  164.3994 C.ar    1  UNL1        0.0029
     16 C         137.7312  142.5335  163.5660 C.ar    1  UNL1        0.0207
     17 C         137.6820  144.0147  163.3337 C.ar    1  UNL1        0.0989
     18 N         138.7303  144.9033  163.9347 N.ar    1  UNL1       -0.2423
     19 C         139.8278  144.3109  164.7681 C.ar    1  UNL1        0.0989
     20 C         139.8770  142.8299  165.0004 C.ar    1  UNL1        0.0207
     21 C         143.7562  140.7362  159.0618 C.ar    1  UNL1        0.0727
     22 C         143.7151  140.0065  157.7520 C.ar    1  UNL1        0.0109
     23 C         144.3763  140.5984  156.5427 C.ar    1  UNL1        0.0579
     24 C         145.0787  141.9200  156.6433 C.ar    1  UNL1        0.2251
     25 N         145.1198  142.6497  157.9531 N.ar    1  UNL1       -0.2100
     26 C         144.4586  142.0578  159.1624 C.ar    1  UNL1        0.1065
     27 O         145.7399  142.5118  155.4339 O.3     1  UNL1       -0.4509
     28 C         147.1520  143.0104  155.5197 C.3     1  UNL1        0.3095
     29 C         148.2904  142.0347  155.5654 C.3     1  UNL1        0.4381
     30 F         149.4288  141.0589  155.6111 F       1  UNL1       -0.1663
     31 F         148.5815  142.4406  156.9797 F       1  UNL1       -0.1663
     32 F         147.9992  141.6288  154.1511 F       1  UNL1       -0.1663
@<TRIPOS>BOND
     1     1     2    2
     2     2     3   am
     3     5     3    1
     4     5     6    1
     5     6     7    1
     6     7     8    1
     7     8     9   ar
     8     9    10   ar
     9    10    11   ar
    10    11    12   ar
    11    12    15    1
    12    15    16   ar
    13    16    17   ar
    14    17    18   ar
    15    18    19   ar
    16    19    20   ar
    17    12    13   ar
    18    13    14    1
    19     2    21    1
    20    21    22   ar
    21    22    23   ar
    22    23    24   ar
    23    24    27    1
    24    27    28    1
    25    28    29    1
    26    29    30    1
    27    29    31    1
    28    29    32    1
    29    24    25   ar
    30    25    26   ar
    31    14     5    1
    32    26    21   ar
    33    13     8   ar
    34    20    15   ar
    35     3     4    1
@<TRIPOS>MOLECULE
*****
 32 35 0 0 0
SMALL
GASTEIGER

@<TRIPOS>ATOM
      1 O         139.9256  139.3660  165.0462 O.2     1  UNL1       -0.2701
      2 C         140.3108  139.9977  166.3510 C.2     1  UNL1        0.2474
      3 N         141.5564  140.8282  166.4434 N.am    1  UNL1       -0.2986
      4 H         141.8092  141.2428  167.2998 H       1  UNL1        0.1498
      5 C         142.4170  141.0270  165.2310 C.3     1  UNL1        0.1200
      6 C         143.7318  140.3137  165.1193 C.3     1  UNL1        0.2250
      7 O         144.5923  140.5125  163.9069 O.3     1  UNL1       -0.4740
      8 C         144.1380  141.4246  162.8061 C.ar    1  UNL1        0.1346
      9 C         144.9985  141.6235  161.5937 C.ar    1  UNL1        0.0366
     10 C         144.5442  142.5356  160.4930 C.ar    1  UNL1        0.0031
     11 C         143.2294  143.2489  160.6047 C.ar    1  UNL1       -0.0001
     12 C         142.3689  143.0501  161.8171 C.ar    1  UNL1       -0.0009
     13 C         142.8232  142.1380  162.9178 C.ar    1  UNL1        0.0136
     14 C         141.9627  141.9391  164.1302 C.3     1  UNL1        0.0528
     15 C         141.0541  143.7634  161.9288 C.ar    1  UNL1        0.0029
     16 C         141.0199  145.2577  162.0555 C.ar    1  UNL1        0.0207
     17 C         139.7050  145.9710  162.1671 C.ar    1  UNL1        0.0989
     18 N         138.4245  145.1900  162.1521 N.ar    1  UNL1       -0.2423
     19 C         138.4587  143.6958  162.0254 C.ar    1  UNL1        0.0989
     20 C         139.7735  142.9825  161.9137 C.ar    1  UNL1        0.0207
     21 C         139.4502  139.7989  167.5635 C.ar    1  UNL1        0.0727
     22 C         139.8299  140.4389  168.8658 C.ar    1  UNL1        0.0109
     23 C         138.9693  140.2401  170.0781 C.ar    1  UNL1        0.0579
     24 C         137.7291  139.4012  169.9882 C.ar    1  UNL1        0.2251
     25 N         137.3494  138.7612  168.6858 N.ar    1  UNL1       -0.2100
     26 C         138.2100  138.9600  167.4735 C.ar    1  UNL1        0.1065
     27 O         136.8685  139.2024  171.2006 O.3     1  UNL1       -0.4509
     28 C         136.0480  137.9547  171.3415 C.3     1  UNL1        0.3095
     29 C         135.9366  137.2769  172.6750 C.3     1  UNL1        0.4381
     30 F         135.8253  136.5991  174.0085 F       1  UNL1       -0.1663
     31 F         137.1916  136.5070  172.3884 F       1  UNL1       -0.1663
     32 F         134.6816  138.0469  172.9616 F       1  UNL1       -0.1663
@<TRIPOS>BOND
     1     1     2    2
     2     2     3   am
     3     5     3    1
     4     5     6    1
     5     6     7    1
     6     7     8    1
     7     8     9   ar
     8     9    10   ar
     9    10    11   ar
    10    11    12   ar
    11    12    15    1
    12    15    16   ar
    13    16    17   ar
    14    17    18   ar
    15    18    19   ar
    16    19    20   ar
    17    12    13   ar
    18    13    14    1
    19     2    21    1
    20    21    22   ar
    21    22    23   ar
    22    23    24   ar
    23    24    27    1
    24    27    28    1
    25    28    29    1
    26    29    30    1
    27    29    31    1
    28    29    32    1
    29    24    25   ar
    30    25    26   ar
    31    14     5    1
    32    26    21   ar
    33    13     8   ar
    34    20    15   ar
    35     3     4    1
@<TRIPOS>MOLECULE
*****
 32 35 0 0 0
SMALL
GASTEIGER

@<TRIPOS>ATOM
      1 O         140.2597  141.2866  158.9831 O.2     1  UNL1       -0.2701
      2 C         140.3268  139.8670  159.4630 C.2     1  UNL1        0.2474
      3 N         139.8018  139.5091  160.8217 N.am    1  UNL1       -0.2986
      4 H         139.8458  138.5774  161.1367 H       1  UNL1        0.1498
      5 C         139.2095  140.5707  161.7006 C.3     1  UNL1        0.1200
      6 C         137.7206  140.7350  161.7790 C.3     1  UNL1        0.2250
      7 O         137.1285  141.7966  162.6577 O.3     1  UNL1       -0.4740
      8 C         138.0252  142.6939  163.4581 C.ar    1  UNL1        0.1346
      9 C         137.4329  143.7555  164.3370 C.ar    1  UNL1        0.0366
     10 C         138.3297  144.6529  165.1374 C.ar    1  UNL1        0.0031
     11 C         139.8186  144.4886  165.0589 C.ar    1  UNL1       -0.0001
     12 C         140.4108  143.4270  164.1802 C.ar    1  UNL1       -0.0009
     13 C         139.5141  142.5297  163.3798 C.ar    1  UNL1        0.0136
     14 C         140.1062  141.4681  162.5010 C.3     1  UNL1        0.0528
     15 C         141.8997  143.2628  164.1018 C.ar    1  UNL1        0.0029
     16 C         142.6875  144.0387  163.0882 C.ar    1  UNL1        0.0207
     17 C         144.1765  143.8745  163.0099 C.ar    1  UNL1        0.0989
     18 N         144.8775  142.9343  163.9450 N.ar    1  UNL1       -0.2423
     19 C         144.0897  142.1584  164.9586 C.ar    1  UNL1        0.0989
     20 C         142.6008  142.3226  165.0369 C.ar    1  UNL1        0.0207
     21 C         140.9191  138.8054  158.5842 C.ar    1  UNL1        0.0727
     22 C         140.0897  138.1777  157.5035 C.ar    1  UNL1        0.0109
     23 C         140.6820  137.1161  156.6247 C.ar    1  UNL1        0.0579
     24 C         142.1036  136.6823  156.8267 C.ar    1  UNL1        0.2251
     25 N         142.9330  137.3100  157.9074 N.ar    1  UNL1       -0.2100
     26 C         142.3407  138.3716  158.7862 C.ar    1  UNL1        0.1065
     27 O         142.6958  135.6206  155.9479 O.3     1  UNL1       -0.4509
     28 C         143.6653  134.6288  156.5192 C.3     1  UNL1        0.3095
     29 C         143.1970  133.2551  156.8980 C.3     1  UNL1        0.4381
     30 F         142.7288  131.8813  157.2768 F       1  UNL1       -0.1663
     31 F         144.4752  133.0265  157.6489 F       1  UNL1       -0.1663
     32 F         141.9189  133.4837  156.1470 F       1  UNL1       -0.1663
@<TRIPOS>BOND
     1     1     2    2
     2     2     3   am
     3     5     3    1
     4     5     6    1
     5     6     7    1
     6     7     8    1
     7     8     9   ar
     8     9    10   ar
     9    10    11   ar
    10    11    12   ar
    11    12    15    1
    12    15    16   ar
    13    16    17   ar
    14    17    18   ar
    15    18    19   ar
    16    19    20   ar
    17    12    13   ar
    18    13    14    1
    19     2    21    1
    20    21    22   ar
    21    22    23   ar
    22    23    24   ar
    23    24    27    1
    24    27    28    1
    25    28    29    1
    26    29    30    1
    27    29    31    1
    28    29    32    1
    29    24    25   ar
    30    25    26   ar
    31    14     5    1
    32    26    21   ar
    33    13     8   ar
    34    20    15   ar
    35     3     4    1
@<TRIPOS>MOLECULE
*****
 32 35 0 0 0
SMALL
GASTEIGER

@<TRIPOS>ATOM
      1 O         139.9921  139.7158  166.0864 O.2     1  UNL1       -0.2701
      2 C         139.7890  140.3228  167.4430 C.2     1  UNL1        0.2474
      3 N         140.5877  141.5239  167.8545 N.am    1  UNL1       -0.2986
      4 H         140.4544  141.9222  168.7449 H       1  UNL1        0.1498
      5 C         141.5895  142.1181  166.9093 C.3     1  UNL1        0.1200
      6 C         143.0266  142.2427  167.3207 C.3     1  UNL1        0.2250
      7 O         144.0284  142.8369  166.3756 O.3     1  UNL1       -0.4740
      8 C         143.5931  143.3065  165.0191 C.ar    1  UNL1        0.1346
      9 C         144.5949  143.9008  164.0740 C.ar    1  UNL1        0.0366
     10 C         144.1596  144.3704  162.7175 C.ar    1  UNL1        0.0031
     11 C         142.7225  144.2458  162.3062 C.ar    1  UNL1       -0.0001
     12 C         141.7207  143.6516  163.2513 C.ar    1  UNL1       -0.0009
     13 C         142.1560  143.1819  164.6078 C.ar    1  UNL1        0.0136
     14 C         141.1542  142.5877  165.5529 C.3     1  UNL1        0.0528
     15 C         140.2836  143.5270  162.8400 C.ar    1  UNL1        0.0029
     16 C         139.8541  142.4011  161.9467 C.ar    1  UNL1        0.0207
     17 C         138.4169  142.2766  161.5354 C.ar    1  UNL1        0.0989
     18 N         137.4094  143.2778  162.0173 N.ar    1  UNL1       -0.2423
     19 C         137.8389  144.4037  162.9106 C.ar    1  UNL1        0.0989
     20 C         139.2760  144.5283  163.3219 C.ar    1  UNL1        0.0207
     21 C         138.7871  139.7285  168.3882 C.ar    1  UNL1        0.0727
     22 C         137.7772  138.7395  167.8862 C.ar    1  UNL1        0.0109
     23 C         136.7754  138.1454  168.8313 C.ar    1  UNL1        0.0579
     24 C         136.7835  138.5401  170.2784 C.ar    1  UNL1        0.2251
     25 N         137.7934  139.5291  170.7804 N.ar    1  UNL1       -0.2100
     26 C         138.7952  140.1233  169.8353 C.ar    1  UNL1        0.1065
     27 O         135.7817  137.9459  171.2236 O.3     1  UNL1       -0.4509
     28 C         136.2080  136.8945  172.2047 C.3     1  UNL1        0.3095
     29 C         135.4656  136.7302  173.4977 C.3     1  UNL1        0.4381
     30 F         134.7233  136.5660  174.7908 F       1  UNL1       -0.1663
     31 F         134.9111  138.1166  173.3555 F       1  UNL1       -0.1663
     32 F         136.0202  135.3438  173.6400 F       1  UNL1       -0.1663
@<TRIPOS>BOND
     1     1     2    2
     2     2     3   am
     3     5     3    1
     4     5     6    1
     5     6     7    1
     6     7     8    1
     7     8     9   ar
     8     9    10   ar
     9    10    11   ar
    10    11    12   ar
    11    12    15    1
    12    15    16   ar
    13    16    17   ar
    14    17    18   ar
    15    18    19   ar
    16    19    20   ar
    17    12    13   ar
    18    13    14    1
    19     2    21    1
    20    21    22   ar
    21    22    23   ar
    22    23    24   ar
    23    24    27    1
    24    27    28    1
    25    28    29    1
    26    29    30    1
    27    29    31    1
    28    29    32    1
    29    24    25   ar
    30    25    26   ar
    31    14     5    1
    32    26    21   ar
    33    13     8   ar
    34    20    15   ar
    35     3     4    1
@<TRIPOS>MOLECULE
*****
 32 35 0 0 0
SMALL
GASTEIGER

@<TRIPOS>ATOM
      1 O         141.0242  143.0412  165.7837 O.2     1  UNL1       -0.2701
      2 C         141.0467  141.5844  166.1405 C.2     1  UNL1        0.2474
      3 N         141.8510  140.6229  165.3167 N.am    1  UNL1       -0.2986
      4 H         141.8658  139.6668  165.5509 H       1  UNL1        0.1498
      5 C         142.6327  141.1182  164.1361 C.3     1  UNL1        0.1200
      6 C         143.9942  141.7155  164.3353 C.3     1  UNL1        0.2250
      7 O         144.7759  142.2107  163.1548 O.3     1  UNL1       -0.4740
      8 C         144.1961  142.1086  161.7751 C.ar    1  UNL1        0.1346
      9 C         144.9779  142.6039  160.5946 C.ar    1  UNL1        0.0366
     10 C         144.3982  142.5018  159.2149 C.ar    1  UNL1        0.0031
     11 C         143.0367  141.9044  159.0158 C.ar    1  UNL1       -0.0001
     12 C         142.2550  141.4092  160.1963 C.ar    1  UNL1       -0.0009
     13 C         142.8347  141.5113  161.5760 C.ar    1  UNL1        0.0136
     14 C         142.0530  141.0161  162.7565 C.3     1  UNL1        0.0528
     15 C         140.8936  140.8119  159.9971 C.ar    1  UNL1        0.0029
     16 C         140.7410  139.3277  159.8427 C.ar    1  UNL1        0.0207
     17 C         139.3795  138.7304  159.6435 C.ar    1  UNL1        0.0989
     18 N         138.1706  139.6173  159.5988 N.ar    1  UNL1       -0.2423
     19 C         138.3232  141.1015  159.7533 C.ar    1  UNL1        0.0989
     20 C         139.6846  141.6988  159.9524 C.ar    1  UNL1        0.0207
     21 C         140.2649  141.0892  167.3210 C.ar    1  UNL1        0.0727
     22 C         140.3891  141.7807  168.6463 C.ar    1  UNL1        0.0109
     23 C         139.6073  141.2854  169.8267 C.ar    1  UNL1        0.0579
     24 C         138.7014  140.0987  169.6819 C.ar    1  UNL1        0.2251
     25 N         138.5773  139.4072  168.3567 N.ar    1  UNL1       -0.2100
     26 C         139.3590  139.9024  167.1762 C.ar    1  UNL1        0.1065
     27 O         137.9197  139.6034  170.8625 O.3     1  UNL1       -0.4509
     28 C         136.7551  138.6807  170.6571 C.3     1  UNL1        0.3095
     29 C         135.8377  138.3649  171.8011 C.3     1  UNL1        0.4381
     30 F         134.9202  138.0491  172.9451 F       1  UNL1       -0.1663
     31 F         135.4723  139.8157  171.9086 F       1  UNL1       -0.1663
     32 F         136.2030  136.9140  171.6935 F       1  UNL1       -0.1663
@<TRIPOS>BOND
     1     1     2    2
     2     2     3   am
     3     5     3    1
     4     5     6    1
     5     6     7    1
     6     7     8    1
     7     8     9   ar
     8     9    10   ar
     9    10    11   ar
    10    11    12   ar
    11    12    15    1
    12    15    16   ar
    13    16    17   ar
    14    17    18   ar
    15    18    19   ar
    16    19    20   ar
    17    12    13   ar
    18    13    14    1
    19     2    21    1
    20    21    22   ar
    21    22    23   ar
    22    23    24   ar
    23    24    27    1
    24    27    28    1
    25    28    29    1
    26    29    30    1
    27    29    31    1
    28    29    32    1
    29    24    25   ar
    30    25    26   ar
    31    14     5    1
    32    26    21   ar
    33    13     8   ar
    34    20    15   ar
    35     3     4    1
@<TRIPOS>MOLECULE
*****
 32 35 0 0 0
SMALL
GASTEIGER

@<TRIPOS>ATOM
      1 O         144.1326  142.2265  162.9468 O.2     1  UNL1       -0.2701
      2 C         143.8205  141.0649  162.0506 C.2     1  UNL1        0.2474
      3 N         143.2256  139.8134  162.6246 N.am    1  UNL1       -0.2986
      4 H         143.0208  139.0509  162.0364 H       1  UNL1        0.1498
      5 C         142.9425  139.7234  164.0950 C.3     1  UNL1        0.1200
      6 C         143.7865  138.8436  164.9687 C.3     1  UNL1        0.2250
      7 O         143.5035  138.7536  166.4390 O.3     1  UNL1       -0.4740
      8 C         142.3765  139.5435  167.0355 C.ar    1  UNL1        0.1346
      9 C         142.0934  139.4536  168.5059 C.ar    1  UNL1        0.0366
     10 C         140.9664  140.2435  169.1024 C.ar    1  UNL1        0.0031
     11 C         140.1224  141.1233  168.2285 C.ar    1  UNL1       -0.0001
     12 C         140.4054  141.2133  166.7583 C.ar    1  UNL1       -0.0009
     13 C         141.5324  140.4234  166.1618 C.ar    1  UNL1        0.0136
     14 C         141.8155  140.5133  164.6915 C.3     1  UNL1        0.0528
     15 C         139.5614  142.0931  165.8845 C.ar    1  UNL1        0.0029
     16 C         139.7910  143.5753  165.8677 C.ar    1  UNL1        0.0207
     17 C         138.9469  144.4551  164.9939 C.ar    1  UNL1        0.0989
     18 N         137.8733  143.8527  164.1369 N.ar    1  UNL1       -0.2423
     19 C         137.6437  142.3705  164.1537 C.ar    1  UNL1        0.0989
     20 C         138.4877  141.4907  165.0275 C.ar    1  UNL1        0.0207
     21 C         144.1036  141.1549  160.5802 C.ar    1  UNL1        0.0727
     22 C         144.5564  142.4536  159.9817 C.ar    1  UNL1        0.0109
     23 C         144.8394  142.5435  158.5114 C.ar    1  UNL1        0.0579
     24 C         144.6696  141.3347  157.6396 C.ar    1  UNL1        0.2251
     25 N         144.2167  140.0360  158.2382 N.ar    1  UNL1       -0.2100
     26 C         143.9337  139.9461  159.7084 C.ar    1  UNL1        0.1065
     27 O         144.9526  141.4247  156.1693 O.3     1  UNL1       -0.4509
     28 C         146.0366  142.3323  155.6683 C.3     1  UNL1        0.3095
     29 C         147.4634  141.8696  155.6720 C.3     1  UNL1        0.4381
     30 F         148.8903  141.4069  155.6757 F       1  UNL1       -0.1663
     31 F         147.2222  141.1157  154.3979 F       1  UNL1       -0.1663
     32 F         147.7046  142.6236  156.9461 F       1  UNL1       -0.1663
@<TRIPOS>BOND
     1     1     2    2
     2     2     3   am
     3     5     3    1
     4     5     6    1
     5     6     7    1
     6     7     8    1
     7     8     9   ar
     8     9    10   ar
     9    10    11   ar
    10    11    12   ar
    11    12    15    1
    12    15    16   ar
    13    16    17   ar
    14    17    18   ar
    15    18    19   ar
    16    19    20   ar
    17    12    13   ar
    18    13    14    1
    19     2    21    1
    20    21    22   ar
    21    22    23   ar
    22    23    24   ar
    23    24    27    1
    24    27    28    1
    25    28    29    1
    26    29    30    1
    27    29    31    1
    28    29    32    1
    29    24    25   ar
    30    25    26   ar
    31    14     5    1
    32    26    21   ar
    33    13     8   ar
    34    20    15   ar
    35     3     4    1
@<TRIPOS>MOLECULE
*****
 32 35 0 0 0
SMALL
GASTEIGER

@<TRIPOS>ATOM
      1 O         139.1800  138.7069  160.1321 O.2     1  UNL1       -0.2701
      2 C         140.2224  139.3357  159.2557 C.2     1  UNL1        0.2474
      3 N         140.5425  140.7941  159.3992 N.am    1  UNL1       -0.2986
      4 H         141.2267  141.2068  158.8240 H       1  UNL1        0.1498
      5 C         139.8203  141.6237  160.4191 C.3     1  UNL1        0.1200
      6 C         138.4110  142.0686  160.1623 C.3     1  UNL1        0.2250
      7 O         137.6889  142.8982  161.1821 O.3     1  UNL1       -0.4740
      8 C         138.3760  143.2830  162.4588 C.ar    1  UNL1        0.1346
      9 C         137.6537  144.1126  163.4787 C.ar    1  UNL1        0.0366
     10 C         138.3408  144.4973  164.7554 C.ar    1  UNL1        0.0031
     11 C         139.7501  144.0524  165.0121 C.ar    1  UNL1       -0.0001
     12 C         140.4723  143.2228  163.9923 C.ar    1  UNL1       -0.0009
     13 C         139.7852  142.8381  162.7156 C.ar    1  UNL1        0.0136
     14 C         140.5074  142.0085  161.6957 C.3     1  UNL1        0.0528
     15 C         141.8816  142.7779  164.2491 C.ar    1  UNL1        0.0029
     16 C         142.1421  141.4634  164.9231 C.ar    1  UNL1        0.0207
     17 C         143.5514  141.0186  165.1799 C.ar    1  UNL1        0.0989
     18 N         144.7002  141.8882  164.7627 N.ar    1  UNL1       -0.2423
     19 C         144.4397  143.2026  164.0887 C.ar    1  UNL1        0.0989
     20 C         143.0304  143.6475  163.8319 C.ar    1  UNL1        0.0207
     21 C         140.9446  138.5061  158.2358 C.ar    1  UNL1        0.0727
     22 C         140.1682  137.7388  157.2071 C.ar    1  UNL1        0.0109
     23 C         140.8905  136.9092  156.1872 C.ar    1  UNL1        0.0579
     24 C         142.3891  136.8469  156.1962 C.ar    1  UNL1        0.2251
     25 N         143.1656  137.6142  157.2249 N.ar    1  UNL1       -0.2100
     26 C         142.4433  138.4438  158.2447 C.ar    1  UNL1        0.1065
     27 O         143.1114  136.0172  155.1763 O.3     1  UNL1       -0.4509
     28 C         142.6381  134.6275  154.8685 C.3     1  UNL1        0.3095
     29 C         142.6273  133.5833  155.9452 C.3     1  UNL1        0.4381
     30 F         142.6165  132.5389  157.0219 F       1  UNL1       -0.1663
     31 F         141.1668  133.3456  155.7001 F       1  UNL1       -0.1663
     32 F         144.0879  133.8209  156.1903 F       1  UNL1       -0.1663
@<TRIPOS>BOND
     1     1     2    2
     2     2     3   am
     3     5     3    1
     4     5     6    1
     5     6     7    1
     6     7     8    1
     7     8     9   ar
     8     9    10   ar
     9    10    11   ar
    10    11    12   ar
    11    12    15    1
    12    15    16   ar
    13    16    17   ar
    14    17    18   ar
    15    18    19   ar
    16    19    20   ar
    17    12    13   ar
    18    13    14    1
    19     2    21    1
    20    21    22   ar
    21    22    23   ar
    22    23    24   ar
    23    24    27    1
    24    27    28    1
    25    28    29    1
    26    29    30    1
    27    29    31    1
    28    29    32    1
    29    24    25   ar
    30    25    26   ar
    31    14     5    1
    32    26    21   ar
    33    13     8   ar
    34    20    15   ar
    35     3     4    1
@<TRIPOS>MOLECULE
*****
 32 35 0 0 0
SMALL
GASTEIGER

@<TRIPOS>ATOM
      1 O         142.2134  144.6152  161.2165 O.2     1  UNL1       -0.2701
      2 C         142.3017  144.0027  159.8501 C.2     1  UNL1        0.2474
      3 N         142.9204  142.6477  159.6742 N.am    1  UNL1       -0.2986
      4 H         142.9784  142.2457  158.7774 H       1  UNL1        0.1498
      5 C         143.4510  141.9051  160.8647 C.3     1  UNL1        0.1200
      6 C         144.8823  142.0770  161.2790 C.3     1  UNL1        0.2250
      7 O         145.4128  141.3344  162.4694 O.3     1  UNL1       -0.4740
      8 C         144.5119  140.4201  163.2456 C.ar    1  UNL1        0.1346
      9 C         145.0425  139.6776  164.4361 C.ar    1  UNL1        0.0366
     10 C         144.1416  138.7632  165.2123 C.ar    1  UNL1        0.0031
     11 C         142.7102  138.5914  164.7979 C.ar    1  UNL1       -0.0001
     12 C         142.1797  139.3340  163.6075 C.ar    1  UNL1       -0.0009
     13 C         143.0806  140.2483  162.8313 C.ar    1  UNL1        0.0136
     14 C         142.5501  140.9908  161.6409 C.3     1  UNL1        0.0528
     15 C         140.7484  139.1622  163.1932 C.ar    1  UNL1        0.0029
     16 C         139.6897  140.0586  163.7637 C.ar    1  UNL1        0.0207
     17 C         138.2582  139.8868  163.3494 C.ar    1  UNL1        0.0989
     18 N         137.8856  138.8185  162.3646 N.ar    1  UNL1       -0.2423
     19 C         138.9443  137.9220  161.7941 C.ar    1  UNL1        0.0989
     20 C         140.3757  138.0938  162.2084 C.ar    1  UNL1        0.0207
     21 C         141.7711  144.7452  158.6596 C.ar    1  UNL1        0.0727
     22 C         142.5050  144.6893  157.3526 C.ar    1  UNL1        0.0109
     23 C         141.9745  145.4318  156.1622 C.ar    1  UNL1        0.0579
     24 C         140.7100  146.2303  156.2788 C.ar    1  UNL1        0.2251
     25 N         139.9761  146.2862  157.5857 N.ar    1  UNL1       -0.2100
     26 C         140.5066  145.5437  158.7761 C.ar    1  UNL1        0.1065
     27 O         140.1794  146.9728  155.0883 O.3     1  UNL1       -0.4509
     28 C         138.8814  147.7179  155.1865 C.3     1  UNL1        0.3095
     29 C         138.8831  149.2018  155.4060 C.3     1  UNL1        0.4381
     30 F         138.8849  150.6857  155.6255 F       1  UNL1       -0.1663
     31 F         139.3387  149.4104  153.9922 F       1  UNL1       -0.1663
     32 F         138.4275  148.9931  156.8198 F       1  UNL1       -0.1663
@<TRIPOS>BOND
     1     1     2    2
     2     2     3   am
     3     5     3    1
     4     5     6    1
     5     6     7    1
     6     7     8    1
     7     8     9   ar
     8     9    10   ar
     9    10    11   ar
    10    11    12   ar
    11    12    15    1
    12    15    16   ar
    13    16    17   ar
    14    17    18   ar
    15    18    19   ar
    16    19    20   ar
    17    12    13   ar
    18    13    14    1
    19     2    21    1
    20    21    22   ar
    21    22    23   ar
    22    23    24   ar
    23    24    27    1
    24    27    28    1
    25    28    29    1
    26    29    30    1
    27    29    31    1
    28    29    32    1
    29    24    25   ar
    30    25    26   ar
    31    14     5    1
    32    26    21   ar
    33    13     8   ar
    34    20    15   ar
    35     3     4    1
@<TRIPOS>MOLECULE
*****
 32 35 0 0 0
SMALL
GASTEIGER

@<TRIPOS>ATOM
      1 O         140.1286  138.3017  161.9817 O.2     1  UNL1       -0.2701
      2 C         141.3472  138.7330  161.2208 C.2     1  UNL1        0.2474
      3 N         142.4222  139.5200  161.9100 N.am    1  UNL1       -0.2986
      4 H         143.2220  139.8030  161.4106 H       1  UNL1        0.1498
      5 C         142.2786  139.8757  163.3602 C.3     1  UNL1        0.1200
      6 C         142.9689  139.0519  164.4064 C.3     1  UNL1        0.2250
      7 O         142.8252  139.4076  165.8565 O.3     1  UNL1       -0.4740
      8 C         141.9913  140.5873  166.2603 C.ar    1  UNL1        0.1346
      9 C         141.8477  140.9431  167.7105 C.ar    1  UNL1        0.0366
     10 C         141.0139  142.1227  168.1143 C.ar    1  UNL1        0.0031
     11 C         140.3236  142.9466  167.0679 C.ar    1  UNL1       -0.0001
     12 C         140.4672  142.5908  165.6178 C.ar    1  UNL1       -0.0009
     13 C         141.3011  141.4112  165.2140 C.ar    1  UNL1        0.0136
     14 C         141.4447  141.0554  163.7640 C.3     1  UNL1        0.0528
     15 C         139.7769  143.4147  164.5716 C.ar    1  UNL1        0.0029
     16 C         138.3555  143.1147  164.1979 C.ar    1  UNL1        0.0207
     17 C         137.6652  143.9387  163.1516 C.ar    1  UNL1        0.0989
     18 N         138.3964  145.0625  162.4790 N.ar    1  UNL1       -0.2423
     19 C         139.8178  145.3624  162.8526 C.ar    1  UNL1        0.0989
     20 C         140.5081  144.5385  163.8989 C.ar    1  UNL1        0.0207
     21 C         141.4908  138.3772  159.7707 C.ar    1  UNL1        0.0727
     22 C         140.2881  138.3828  158.8744 C.ar    1  UNL1        0.0109
     23 C         140.4317  138.0270  157.4243 C.ar    1  UNL1        0.0579
     24 C         141.7781  137.6657  156.8705 C.ar    1  UNL1        0.2251
     25 N         142.9808  137.6601  157.7668 N.ar    1  UNL1       -0.2100
     26 C         142.8372  138.0158  159.2169 C.ar    1  UNL1        0.1065
     27 O         141.9217  137.3099  155.4204 O.3     1  UNL1       -0.4509
     28 C         142.6499  136.0602  155.0233 C.3     1  UNL1        0.3095
     29 C         142.4278  134.7881  155.7865 C.3     1  UNL1        0.4381
     30 F         142.2056  133.5160  156.5497 F       1  UNL1       -0.1663
     31 F         140.9890  134.7849  155.3623 F       1  UNL1       -0.1663
     32 F         143.8665  134.7914  156.2106 F       1  UNL1       -0.1663
@<TRIPOS>BOND
     1     1     2    2
     2     2     3   am
     3     5     3    1
     4     5     6    1
     5     6     7    1
     6     7     8    1
     7     8     9   ar
     8     9    10   ar
     9    10    11   ar
    10    11    12   ar
    11    12    15    1
    12    15    16   ar
    13    16    17   ar
    14    17    18   ar
    15    18    19   ar
    16    19    20   ar
    17    12    13   ar
    18    13    14    1
    19     2    21    1
    20    21    22   ar
    21    22    23   ar
    22    23    24   ar
    23    24    27    1
    24    27    28    1
    25    28    29    1
    26    29    30    1
    27    29    31    1
    28    29    32    1
    29    24    25   ar
    30    25    26   ar
    31    14     5    1
    32    26    21   ar
    33    13     8   ar
    34    20    15   ar
    35     3     4    1
