@<TRIPOS>MOLECULE
*****
 31 34 0 0 0
SMALL
GASTEIGER

@<TRIPOS>ATOM
      1 N         139.2978  144.0279  163.4534 N.3     1  UNL1       -0.2649
      2 C         138.6168  142.6920  163.4126 C.3     1  UNL1        0.0991
      3 C         139.0123  141.9323  164.6440 C.ar    1  UNL1       -0.0088
      4 C         138.6493  140.5635  165.1386 C.ar    1  UNL1       -0.0032
      5 C         139.2118  140.0611  166.4352 C.ar    1  UNL1       -0.0003
      6 C         140.1372  140.9274  167.2372 C.ar    1  UNL1       -0.0001
      7 C         140.5001  142.2962  166.7425 C.ar    1  UNL1       -0.0032
      8 C         139.9377  142.7986  165.4459 C.ar    1  UNL1       -0.0088
      9 C         140.1141  144.0938  164.7101 C.3     1  UNL1        0.0991
     10 C         140.6996  140.4249  168.5338 C.2     1  UNL1        0.0047
     11 C         141.7431  141.2228  169.2580 C.2     1  UNL1        0.0598
     12 C         142.3056  140.7203  170.5547 C.2     1  UNL1        0.2679
     13 O         141.6466  141.0886  171.8508 O.2     1  UNL1       -0.2681
     14 N         143.5269  139.8495  170.5551 N.am    1  UNL1       -0.1934
     15 O         144.0893  139.3471  171.8517 O.3     1  UNL1       -0.2949
     16 H         143.9594  139.6078  169.7043 H       1  UNL1        0.1825
     17 H         143.5486  139.6749  172.5873 H       1  UNL1        0.2414
     18 C         139.1826  145.1083  162.4192 C.3     1  UNL1        0.0775
     19 C         140.4174  145.7793  161.8949 C.3     1  UNL1        0.0482
     20 C         140.1208  145.9601  158.6501 C.3     1  UNL1        0.0553
     21 C         141.1463  145.1614  159.3985 C.ar    1  UNL1        0.0970
     22 N         142.2157  144.3056  158.7869 N.ar    1  UNL1       -0.0817
     23 O         143.0130  143.6935  159.9004 O.2     1  UNL1       -0.3540
     24 C         142.4363  144.1711  161.2001 C.ar    1  UNL1        0.1725
     25 C         141.2827  145.0783  160.8900 C.ar    1  UNL1        0.0330
     26 C         142.9272  143.8056  162.5696 C.ar    1  UNL1        0.0369
     27 C         142.8107  142.3914  163.0555 C.ar    1  UNL1        0.0031
     28 C         143.3016  142.0259  164.4250 C.ar    1  UNL1        0.0001
     29 C         143.9089  143.0748  165.3086 C.ar    1  UNL1        0.0000
     30 C         144.0254  144.4892  164.8228 C.ar    1  UNL1        0.0001
     31 C         143.5345  144.8547  163.4533 C.ar    1  UNL1        0.0031
@<TRIPOS>BOND
     1    20    21    1
     2    21    22   ar
     3    22    23   ar
     4    23    24   ar
     5    24    26    1
     6    26    27   ar
     7    27    28   ar
     8    28    29   ar
     9    29    30   ar
    10    30    31   ar
    11    24    25   ar
    12    25    19    1
    13    19    18    1
    14    18     1    1
    15     1     2    1
    16     2     3    1
    17     3     4   ar
    18     4     5   ar
    19     5     6   ar
    20     6    10    1
    21    10    11    2
    22    11    12    1
    23    12    13    2
    24    12    14   am
    25    14    15    1
    26     6     7   ar
    27     7     8   ar
    28     8     9    1
    29    25    21   ar
    30     9     1    1
    31    31    26   ar
    32     8     3   ar
    33    14    16    1
    34    15    17    1
@<TRIPOS>MOLECULE
*****
 31 34 0 0 0
SMALL
GASTEIGER

@<TRIPOS>ATOM
      1 N         142.1080  139.4401  162.5066 N.3     1  UNL1       -0.2649
      2 C         142.5814  138.5168  163.5898 C.3     1  UNL1        0.0991
      3 C         142.4579  139.2371  164.8997 C.ar    1  UNL1       -0.0088
      4 C         142.7750  138.8236  166.3063 C.ar    1  UNL1       -0.0032
      5 C         142.5424  139.7787  167.4393 C.ar    1  UNL1       -0.0003
      6 C         141.9927  141.1473  167.1656 C.ar    1  UNL1       -0.0001
      7 C         141.6757  141.5608  165.7591 C.ar    1  UNL1       -0.0032
      8 C         141.9083  140.6057  164.6261 C.ar    1  UNL1       -0.0088
      9 C         141.6920  140.7311  163.1471 C.3     1  UNL1        0.0991
     10 C         141.7601  142.1024  168.2987 C.2     1  UNL1        0.0047
     11 C         140.4112  142.1790  168.9502 C.2     1  UNL1        0.0598
     12 C         140.1786  143.1341  170.0832 C.2     1  UNL1        0.2679
     13 O         140.1744  142.6335  171.4972 O.2     1  UNL1       -0.2681
     14 N         139.9502  144.5897  169.8022 N.am    1  UNL1       -0.1934
     15 O         139.7177  145.5448  170.9352 O.3     1  UNL1       -0.2949
     16 H         139.9530  144.9183  168.8742 H       1  UNL1        0.1825
     17 H         139.7465  145.0620  171.7761 H       1  UNL1        0.2414
     18 C         142.0593  139.1274  161.0404 C.3     1  UNL1        0.0775
     19 C         140.9274  138.3155  160.4839 C.3     1  UNL1        0.0482
     20 C         139.9051  139.2020  157.5143 C.3     1  UNL1        0.0553
     21 C         139.1490  139.3820  158.7971 C.ar    1  UNL1        0.0970
     22 N         137.7902  140.0010  158.9404 N.ar    1  UNL1       -0.0817
     23 O         137.4203  139.9761  160.3938 O.2     1  UNL1       -0.3540
     24 C         138.5505  139.3417  161.1489 C.ar    1  UNL1        0.1725
     25 C         139.6189  138.9745  160.1622 C.ar    1  UNL1        0.0330
     26 C         138.6030  139.1144  162.6307 C.ar    1  UNL1        0.0369
     27 C         138.2251  140.2187  163.5728 C.ar    1  UNL1        0.0031
     28 C         138.2776  139.9914  165.0545 C.ar    1  UNL1        0.0001
     29 C         138.7082  138.6597  165.5941 C.ar    1  UNL1        0.0000
     30 C         139.0862  137.5553  164.6521 C.ar    1  UNL1        0.0001
     31 C         139.0336  137.7826  163.1703 C.ar    1  UNL1        0.0031
@<TRIPOS>BOND
     1    20    21    1
     2    21    22   ar
     3    22    23   ar
     4    23    24   ar
     5    24    26    1
     6    26    27   ar
     7    27    28   ar
     8    28    29   ar
     9    29    30   ar
    10    30    31   ar
    11    24    25   ar
    12    25    19    1
    13    19    18    1
    14    18     1    1
    15     1     2    1
    16     2     3    1
    17     3     4   ar
    18     4     5   ar
    19     5     6   ar
    20     6    10    1
    21    10    11    2
    22    11    12    1
    23    12    13    2
    24    12    14   am
    25    14    15    1
    26     6     7   ar
    27     7     8   ar
    28     8     9    1
    29    25    21   ar
    30     9     1    1
    31    31    26   ar
    32     8     3   ar
    33    14    16    1
    34    15    17    1
@<TRIPOS>MOLECULE
*****
 31 34 0 0 0
SMALL
GASTEIGER

@<TRIPOS>ATOM
      1 N         139.2662  139.9333  162.5649 N.3     1  UNL1       -0.2649
      2 C         138.6410  139.1213  163.6602 C.3     1  UNL1        0.0991
      3 C         139.0358  139.7312  164.9725 C.ar    1  UNL1       -0.0088
      4 C         138.7160  139.3575  166.3896 C.ar    1  UNL1       -0.0032
      5 C         139.2656  140.1728  167.5224 C.ar    1  UNL1       -0.0003
      6 C         140.1348  141.3617  167.2382 C.ar    1  UNL1       -0.0001
      7 C         140.4545  141.7354  165.8211 C.ar    1  UNL1       -0.0032
      8 C         139.9050  140.9202  164.6883 C.ar    1  UNL1       -0.0088
      9 C         140.0474  141.0451  163.2003 C.3     1  UNL1        0.0991
     10 C         140.6843  142.1770  168.3711 C.2     1  UNL1        0.0047
     11 C         141.5222  141.5222  169.4289 C.2     1  UNL1        0.0598
     12 C         142.0718  142.3375  170.5618 C.2     1  UNL1        0.2679
     13 O         141.5592  142.1261  171.9556 O.2     1  UNL1       -0.2681
     14 N         143.1339  143.3640  170.3009 N.am    1  UNL1       -0.1934
     15 O         143.6833  144.1792  171.4338 O.3     1  UNL1       -0.2949
     16 H         143.4703  143.5028  169.3862 H       1  UNL1        0.1825
     17 H         143.2475  143.9192  172.2605 H       1  UNL1        0.2414
     18 C         139.1336  139.6784  161.0927 C.3     1  UNL1        0.0775
     19 C         139.7243  138.4383  160.4900 C.3     1  UNL1        0.0482
     20 C         140.7154  138.5655  157.3834 C.3     1  UNL1        0.0553
     21 C         141.6036  138.4972  158.5900 C.ar    1  UNL1        0.0970
     22 N         143.1035  138.4753  158.5807 N.ar    1  UNL1       -0.0817
     23 O         143.5749  138.4033  160.0029 O.2     1  UNL1       -0.3540
     24 C         142.3664  138.3807  160.8912 C.ar    1  UNL1        0.1725
     25 C         141.1481  138.4387  160.0181 C.ar    1  UNL1        0.0330
     26 C         142.3748  138.3122  162.3896 C.ar    1  UNL1        0.0369
     27 C         143.2137  139.2723  163.1797 C.ar    1  UNL1        0.0031
     28 C         143.2221  139.2037  164.6781 C.ar    1  UNL1        0.0001
     29 C         142.3915  138.1749  165.3864 C.ar    1  UNL1        0.0000
     30 C         141.5525  137.2148  164.5964 C.ar    1  UNL1        0.0001
     31 C         141.5441  137.2834  163.0979 C.ar    1  UNL1        0.0031
@<TRIPOS>BOND
     1    20    21    1
     2    21    22   ar
     3    22    23   ar
     4    23    24   ar
     5    24    26    1
     6    26    27   ar
     7    27    28   ar
     8    28    29   ar
     9    29    30   ar
    10    30    31   ar
    11    24    25   ar
    12    25    19    1
    13    19    18    1
    14    18     1    1
    15     1     2    1
    16     2     3    1
    17     3     4   ar
    18     4     5   ar
    19     5     6   ar
    20     6    10    1
    21    10    11    2
    22    11    12    1
    23    12    13    2
    24    12    14   am
    25    14    15    1
    26     6     7   ar
    27     7     8   ar
    28     8     9    1
    29    25    21   ar
    30     9     1    1
    31    31    26   ar
    32     8     3   ar
    33    14    16    1
    34    15    17    1
@<TRIPOS>MOLECULE
*****
 31 34 0 0 0
SMALL
GASTEIGER

@<TRIPOS>ATOM
      1 N         139.5221  140.7534  161.9811 N.3     1  UNL1       -0.2649
      2 C         138.4128  140.4572  162.9463 C.3     1  UNL1        0.0991
      3 C         139.0169  140.2859  164.3085 C.ar    1  UNL1       -0.0088
      4 C         138.4085  139.9813  165.6453 C.ar    1  UNL1       -0.0032
      5 C         139.2828  139.8669  166.8587 C.ar    1  UNL1       -0.0003
      6 C         140.7655  140.0572  166.7354 C.ar    1  UNL1       -0.0001
      7 C         141.3740  140.3619  165.3987 C.ar    1  UNL1       -0.0032
      8 C         140.4997  140.4762  164.1852 C.ar    1  UNL1       -0.0088
      9 C         140.8119  140.7651  162.7468 C.3     1  UNL1        0.0991
     10 C         141.6399  139.9428  167.9489 C.2     1  UNL1        0.0047
     11 C         141.1325  140.3995  169.2846 C.2     1  UNL1        0.0598
     12 C         142.0068  140.2851  170.4981 C.2     1  UNL1        0.2679
     13 O         141.6811  141.0706  171.7338 O.2     1  UNL1       -0.2681
     14 N         143.2068  139.3854  170.4758 N.am    1  UNL1       -0.1934
     15 O         144.0810  139.2711  171.6893 O.3     1  UNL1       -0.2949
     16 H         143.4205  138.8699  169.6648 H       1  UNL1        0.1825
     17 H         143.7324  139.8396  172.3937 H       1  UNL1        0.2414
     18 C         139.3686  140.9953  160.5087 C.3     1  UNL1        0.0775
     19 C         138.6928  142.2420  160.0199 C.3     1  UNL1        0.0482
     20 C         139.7958  143.4659  157.2030 C.3     1  UNL1        0.0553
     21 C         139.9880  144.0703  158.5622 C.ar    1  UNL1        0.0970
     22 N         140.7210  145.3435  158.8654 N.ar    1  UNL1       -0.0817
     23 O         140.6671  145.5678  160.3476 O.2     1  UNL1       -0.3540
     24 C         139.9007  144.4332  160.9604 C.ar    1  UNL1        0.1725
     25 C         139.4811  143.5078  159.8571 C.ar    1  UNL1        0.0330
     26 C         139.6059  144.2554  162.4204 C.ar    1  UNL1        0.0369
     27 C         138.1861  144.1410  162.8903 C.ar    1  UNL1        0.0031
     28 C         137.8912  143.9632  164.3503 C.ar    1  UNL1        0.0001
     29 C         139.0163  143.8997  165.3402 C.ar    1  UNL1        0.0000
     30 C         140.4362  144.0141  164.8704 C.ar    1  UNL1        0.0001
     31 C         140.7310  144.1920  163.4104 C.ar    1  UNL1        0.0031
@<TRIPOS>BOND
     1    20    21    1
     2    21    22   ar
     3    22    23   ar
     4    23    24   ar
     5    24    26    1
     6    26    27   ar
     7    27    28   ar
     8    28    29   ar
     9    29    30   ar
    10    30    31   ar
    11    24    25   ar
    12    25    19    1
    13    19    18    1
    14    18     1    1
    15     1     2    1
    16     2     3    1
    17     3     4   ar
    18     4     5   ar
    19     5     6   ar
    20     6    10    1
    21    10    11    2
    22    11    12    1
    23    12    13    2
    24    12    14   am
    25    14    15    1
    26     6     7   ar
    27     7     8   ar
    28     8     9    1
    29    25    21   ar
    30     9     1    1
    31    31    26   ar
    32     8     3   ar
    33    14    16    1
    34    15    17    1
@<TRIPOS>MOLECULE
*****
 31 34 0 0 0
SMALL
GASTEIGER

@<TRIPOS>ATOM
      1 N         140.3461  138.4074  162.9373 N.3     1  UNL1       -0.2649
      2 C         139.1626  137.9914  163.7595 C.3     1  UNL1        0.0991
      3 C         139.2356  138.7102  165.0740 C.ar    1  UNL1       -0.0088
      4 C         138.3420  138.6925  166.2787 C.ar    1  UNL1       -0.0032
      5 C         138.6771  139.5351  167.4735 C.ar    1  UNL1       -0.0003
      6 C         139.9059  140.3954  167.4637 C.ar    1  UNL1       -0.0001
      7 C         140.7994  140.4131  166.2591 C.ar    1  UNL1       -0.0032
      8 C         140.4643  139.5705  165.0643 C.ar    1  UNL1       -0.0088
      9 C         141.1506  139.3834  163.7437 C.3     1  UNL1        0.0991
     10 C         140.2410  141.2380  168.6586 C.2     1  UNL1        0.0047
     11 C         141.3884  142.2022  168.5984 C.2     1  UNL1        0.0598
     12 C         141.7235  143.0448  169.7933 C.2     1  UNL1        0.2679
     13 O         140.6272  143.6980  170.5817 O.2     1  UNL1       -0.2681
     14 N         143.1549  143.2342  170.1999 N.am    1  UNL1       -0.1934
     15 O         143.4899  144.0768  171.3947 O.3     1  UNL1       -0.2949
     16 H         143.8744  142.8055  169.6825 H       1  UNL1        0.1825
     17 H         142.6724  144.4217  171.7867 H       1  UNL1        0.2414
     18 C         140.6686  137.9312  161.5519 C.3     1  UNL1        0.0775
     19 C         140.9499  138.9246  160.4638 C.3     1  UNL1        0.0482
     20 C         140.2396  137.9838  157.4208 C.3     1  UNL1        0.0553
     21 C         139.5008  139.0163  158.2195 C.ar    1  UNL1        0.0970
     22 N         138.3058  139.7978  157.7597 N.ar    1  UNL1       -0.0817
     23 O         137.8938  140.7132  158.8743 O.2     1  UNL1       -0.3540
     24 C         138.8341  140.4975  160.0229 C.ar    1  UNL1        0.1725
     25 C         139.8273  139.4488  159.6183 C.ar    1  UNL1        0.0330
     26 C         138.7891  141.2061  161.3442 C.ar    1  UNL1        0.0369
     27 C         137.6421  140.9721  162.2821 C.ar    1  UNL1        0.0031
     28 C         137.5971  141.6807  163.6034 C.ar    1  UNL1        0.0001
     29 C         138.6991  142.6233  163.9868 C.ar    1  UNL1        0.0000
     30 C         139.8461  142.8574  163.0489 C.ar    1  UNL1        0.0001
     31 C         139.8911  142.1488  161.7276 C.ar    1  UNL1        0.0031
@<TRIPOS>BOND
     1    20    21    1
     2    21    22   ar
     3    22    23   ar
     4    23    24   ar
     5    24    26    1
     6    26    27   ar
     7    27    28   ar
     8    28    29   ar
     9    29    30   ar
    10    30    31   ar
    11    24    25   ar
    12    25    19    1
    13    19    18    1
    14    18     1    1
    15     1     2    1
    16     2     3    1
    17     3     4   ar
    18     4     5   ar
    19     5     6   ar
    20     6    10    1
    21    10    11    2
    22    11    12    1
    23    12    13    2
    24    12    14   am
    25    14    15    1
    26     6     7   ar
    27     7     8   ar
    28     8     9    1
    29    25    21   ar
    30     9     1    1
    31    31    26   ar
    32     8     3   ar
    33    14    16    1
    34    15    17    1
@<TRIPOS>MOLECULE
*****
 31 34 0 0 0
SMALL
GASTEIGER

@<TRIPOS>ATOM
      1 N         138.4792  141.6345  162.5735 N.3     1  UNL1       -0.2649
      2 C         137.7071  140.6685  163.4224 C.3     1  UNL1        0.0991
      3 C         138.4872  140.4317  164.6816 C.ar    1  UNL1       -0.0088
      4 C         138.2175  139.5757  165.8834 C.ar    1  UNL1       -0.0032
      5 C         139.2020  139.5394  167.0145 C.ar    1  UNL1       -0.0003
      6 C         140.4562  140.3591  166.9438 C.ar    1  UNL1       -0.0001
      7 C         140.7259  141.2151  165.7420 C.ar    1  UNL1       -0.0032
      8 C         139.7414  141.2515  164.6109 C.ar    1  UNL1       -0.0088
      9 C         139.7364  141.9948  163.3080 C.3     1  UNL1        0.0991
     10 C         141.4407  140.3227  168.0749 C.2     1  UNL1        0.0047
     11 C         140.9532  140.2473  169.4914 C.2     1  UNL1        0.0598
     12 C         141.9377  140.2109  170.6226 C.2     1  UNL1        0.2679
     13 O         141.7406  141.0965  171.8172 O.2     1  UNL1       -0.2681
     14 N         143.1192  139.2891  170.5592 N.am    1  UNL1       -0.1934
     15 O         144.1037  139.2528  171.6903 O.3     1  UNL1       -0.2949
     16 H         143.2486  138.7079  169.7751 H       1  UNL1        0.1825
     17 H         143.8306  139.8812  172.3769 H       1  UNL1        0.2414
     18 C         138.0665  142.1497  161.2266 C.3     1  UNL1        0.0775
     19 C         139.0180  142.0710  160.0697 C.3     1  UNL1        0.0482
     20 C         137.8419  142.1134  157.0259 C.3     1  UNL1        0.0553
     21 C         138.4207  140.9228  157.7309 C.ar    1  UNL1        0.0970
     22 N         138.5606  139.5424  157.1607 N.ar    1  UNL1       -0.0817
     23 O         139.1877  138.6698  158.2073 O.2     1  UNL1       -0.3540
     24 C         139.4354  139.5109  159.4244 C.ar    1  UNL1        0.1725
     25 C         138.9614  140.9032  159.1300 C.ar    1  UNL1        0.0330
     26 C         140.0492  139.0418  160.7102 C.ar    1  UNL1        0.0369
     27 C         141.3917  139.5601  161.1333 C.ar    1  UNL1        0.0031
     28 C         142.0055  139.0911  162.4191 C.ar    1  UNL1        0.0001
     29 C         141.2769  138.1037  163.2817 C.ar    1  UNL1        0.0000
     30 C         139.9344  137.5854  162.8586 C.ar    1  UNL1        0.0001
     31 C         139.3205  138.0544  161.5728 C.ar    1  UNL1        0.0031
@<TRIPOS>BOND
     1    20    21    1
     2    21    22   ar
     3    22    23   ar
     4    23    24   ar
     5    24    26    1
     6    26    27   ar
     7    27    28   ar
     8    28    29   ar
     9    29    30   ar
    10    30    31   ar
    11    24    25   ar
    12    25    19    1
    13    19    18    1
    14    18     1    1
    15     1     2    1
    16     2     3    1
    17     3     4   ar
    18     4     5   ar
    19     5     6   ar
    20     6    10    1
    21    10    11    2
    22    11    12    1
    23    12    13    2
    24    12    14   am
    25    14    15    1
    26     6     7   ar
    27     7     8   ar
    28     8     9    1
    29    25    21   ar
    30     9     1    1
    31    31    26   ar
    32     8     3   ar
    33    14    16    1
    34    15    17    1
@<TRIPOS>MOLECULE
*****
 31 34 0 0 0
SMALL
GASTEIGER

@<TRIPOS>ATOM
      1 N         139.8260  142.2332  164.7230 N.3     1  UNL1       -0.2649
      2 C         138.4459  141.8929  164.2439 C.3     1  UNL1        0.0991
      3 C         138.5779  140.9910  163.0527 C.ar    1  UNL1       -0.0088
      4 C         137.5560  140.3394  162.1689 C.ar    1  UNL1       -0.0032
      5 C         137.9958  139.4707  161.0280 C.ar    1  UNL1       -0.0003
      6 C         139.4576  139.2535  160.7708 C.ar    1  UNL1       -0.0001
      7 C         140.4795  139.9051  161.6545 C.ar    1  UNL1       -0.0032
      8 C         140.0397  140.7739  162.7954 C.ar    1  UNL1       -0.0088
      9 C         140.8110  141.5416  163.8277 C.3     1  UNL1        0.0991
     10 C         139.8973  138.3848  159.6297 C.2     1  UNL1        0.0047
     11 C         139.7369  138.8636  158.2173 C.2     1  UNL1        0.0598
     12 C         140.1767  137.9948  157.0763 C.2     1  UNL1        0.2679
     13 O         141.5682  138.1211  156.5305 O.2     1  UNL1       -0.2681
     14 N         139.2251  136.9998  156.4811 N.am    1  UNL1       -0.1934
     15 O         139.6649  136.1311  155.3401 O.3     1  UNL1       -0.2949
     16 H         138.3118  136.9169  156.8394 H       1  UNL1        0.1825
     17 H         140.5844  136.3386  155.1116 H       1  UNL1        0.2414
     18 C         140.1621  143.1110  165.8920 C.3     1  UNL1        0.0775
     19 C         140.9977  142.5751  167.0165 C.3     1  UNL1        0.0482
     20 C         140.3500  143.7292  169.9995 C.3     1  UNL1        0.0553
     21 C         140.0527  142.3443  169.5062 C.ar    1  UNL1        0.0970
     22 N         139.4054  141.2465  170.2975 N.ar    1  UNL1       -0.0817
     23 O         139.3031  140.0376  169.4154 O.2     1  UNL1       -0.3540
     24 C         139.8871  140.3882  168.0790 C.ar    1  UNL1        0.1725
     25 C         140.3504  141.8137  168.1351 C.ar    1  UNL1        0.0330
     26 C         139.9899  139.4737  166.8944 C.ar    1  UNL1        0.0369
     27 C         141.3347  139.1326  166.3246 C.ar    1  UNL1        0.0031
     28 C         141.4375  138.2181  165.1400 C.ar    1  UNL1        0.0001
     29 C         140.1952  137.6448  164.5253 C.ar    1  UNL1        0.0000
     30 C         138.8502  137.9859  165.0951 C.ar    1  UNL1        0.0001
     31 C         138.7475  138.9004  166.2797 C.ar    1  UNL1        0.0031
@<TRIPOS>BOND
     1    20    21    1
     2    21    22   ar
     3    22    23   ar
     4    23    24   ar
     5    24    26    1
     6    26    27   ar
     7    27    28   ar
     8    28    29   ar
     9    29    30   ar
    10    30    31   ar
    11    24    25   ar
    12    25    19    1
    13    19    18    1
    14    18     1    1
    15     1     2    1
    16     2     3    1
    17     3     4   ar
    18     4     5   ar
    19     5     6   ar
    20     6    10    1
    21    10    11    2
    22    11    12    1
    23    12    13    2
    24    12    14   am
    25    14    15    1
    26     6     7   ar
    27     7     8   ar
    28     8     9    1
    29    25    21   ar
    30     9     1    1
    31    31    26   ar
    32     8     3   ar
    33    14    16    1
    34    15    17    1
@<TRIPOS>MOLECULE
*****
 31 34 0 0 0
SMALL
GASTEIGER

@<TRIPOS>ATOM
      1 N         139.3557  140.2943  161.5670 N.3     1  UNL1       -0.2649
      2 C         139.0958  138.8755  161.9785 C.3     1  UNL1        0.0991
      3 C         138.9742  138.8412  163.4732 C.ar    1  UNL1       -0.0088
      4 C         138.7191  137.7180  164.4339 C.ar    1  UNL1       -0.0032
      5 C         138.6489  137.9923  165.9069 C.ar    1  UNL1       -0.0003
      6 C         138.8337  139.3900  166.4192 C.ar    1  UNL1       -0.0001
      7 C         139.0888  140.5133  165.4584 C.ar    1  UNL1       -0.0032
      8 C         139.1591  140.2389  163.9854 C.ar    1  UNL1       -0.0088
      9 C         139.3949  141.1369  162.8073 C.3     1  UNL1        0.0991
     10 C         138.7635  139.6643  167.8922 C.2     1  UNL1        0.0047
     11 C         139.9282  140.2979  168.5935 C.2     1  UNL1        0.0598
     12 C         139.8579  140.5722  170.0666 C.2     1  UNL1        0.2679
     13 O         139.1760  139.5967  170.9795 O.2     1  UNL1       -0.2681
     14 N         140.4696  141.8220  170.6268 N.am    1  UNL1       -0.1934
     15 O         140.3993  142.0963  172.0998 O.3     1  UNL1       -0.2949
     16 H         140.9172  142.4623  170.0276 H       1  UNL1        0.1825
     17 H         139.9288  141.3721  172.5414 H       1  UNL1        0.2414
     18 C         139.5436  140.7845  160.1618 C.3     1  UNL1        0.0775
     19 C         140.8937  141.2512  159.7045 C.3     1  UNL1        0.0482
     20 C         141.6704  140.3018  156.6804 C.3     1  UNL1        0.0553
     21 C         142.3060  139.8137  157.9483 C.ar    1  UNL1        0.0970
     22 N         143.4102  138.8034  158.0489 N.ar    1  UNL1       -0.0817
     23 O         143.7357  138.6154  159.5010 O.2     1  UNL1       -0.3540
     24 C         142.8326  139.5095  160.2979 C.ar    1  UNL1        0.1725
     25 C         141.9490  140.2500  159.3383 C.ar    1  UNL1        0.0330
     26 C         142.8161  139.6400  161.7921 C.ar    1  UNL1        0.0369
     27 C         142.5964  138.4283  162.6485 C.ar    1  UNL1        0.0031
     28 C         142.5799  138.5589  164.1427 C.ar    1  UNL1        0.0001
     29 C         142.7830  139.9012  164.7805 C.ar    1  UNL1        0.0000
     30 C         143.0026  141.1130  163.9242 C.ar    1  UNL1        0.0001
     31 C         143.0192  140.9825  162.4299 C.ar    1  UNL1        0.0031
@<TRIPOS>BOND
     1    20    21    1
     2    21    22   ar
     3    22    23   ar
     4    23    24   ar
     5    24    26    1
     6    26    27   ar
     7    27    28   ar
     8    28    29   ar
     9    29    30   ar
    10    30    31   ar
    11    24    25   ar
    12    25    19    1
    13    19    18    1
    14    18     1    1
    15     1     2    1
    16     2     3    1
    17     3     4   ar
    18     4     5   ar
    19     5     6   ar
    20     6    10    1
    21    10    11    2
    22    11    12    1
    23    12    13    2
    24    12    14   am
    25    14    15    1
    26     6     7   ar
    27     7     8   ar
    28     8     9    1
    29    25    21   ar
    30     9     1    1
    31    31    26   ar
    32     8     3   ar
    33    14    16    1
    34    15    17    1
@<TRIPOS>MOLECULE
*****
 31 34 0 0 0
SMALL
GASTEIGER

@<TRIPOS>ATOM
      1 N         140.8448  141.9373  165.4719 N.3     1  UNL1       -0.2649
      2 C         142.0839  142.7553  165.6853 C.3     1  UNL1        0.0991
      3 C         142.7671  142.9163  164.3597 C.ar    1  UNL1       -0.0088
      4 C         144.0275  143.6243  163.9596 C.ar    1  UNL1       -0.0032
      5 C         144.4710  143.6139  162.5267 C.ar    1  UNL1       -0.0003
      6 C         143.6541  142.8955  161.4940 C.ar    1  UNL1       -0.0001
      7 C         142.3937  142.1875  161.8941 C.ar    1  UNL1       -0.0032
      8 C         141.9502  142.1979  163.3269 C.ar    1  UNL1       -0.0088
      9 C         140.7622  141.5929  164.0143 C.3     1  UNL1        0.0991
     10 C         144.0977  142.8851  160.0610 C.2     1  UNL1        0.0047
     11 C         144.1322  141.5954  159.2960 C.2     1  UNL1        0.0598
     12 C         144.5758  141.5850  157.8630 C.2     1  UNL1        0.2679
     13 O         144.9118  140.2865  157.1914 O.2     1  UNL1       -0.2681
     14 N         144.6832  142.8730  157.1018 N.am    1  UNL1       -0.1934
     15 O         145.1268  142.8625  155.6690 O.3     1  UNL1       -0.2949
     16 H         144.4627  143.7252  157.5427 H       1  UNL1        0.1825
     17 H         145.3029  141.9498  155.3917 H       1  UNL1        0.2414
     18 C         139.8610  141.5346  166.5302 C.3     1  UNL1        0.0775
     19 C         139.9109  140.1538  167.1141 C.3     1  UNL1        0.0482
     20 C         140.2770  140.2165  170.3563 C.3     1  UNL1        0.0553
     21 C         141.2921  139.7327  169.3636 C.ar    1  UNL1        0.0970
     22 N         142.6537  139.1928  169.6868 N.ar    1  UNL1       -0.0817
     23 O         143.3270  138.8303  168.3963 O.2     1  UNL1       -0.3540
     24 C         142.3814  139.1462  167.2755 C.ar    1  UNL1        0.1725
     25 C         141.1238  139.7039  167.8733 C.ar    1  UNL1        0.0330
     26 C         142.6469  138.9405  165.8136 C.ar    1  UNL1        0.0369
     27 C         141.6884  138.1403  164.9826 C.ar    1  UNL1        0.0031
     28 C         141.9539  137.9345  163.5207 C.ar    1  UNL1        0.0001
     29 C         143.1781  138.5291  162.8899 C.ar    1  UNL1        0.0000
     30 C         144.1367  139.3294  163.7209 C.ar    1  UNL1        0.0001
     31 C         143.8712  139.5351  165.1828 C.ar    1  UNL1        0.0031
@<TRIPOS>BOND
     1    20    21    1
     2    21    22   ar
     3    22    23   ar
     4    23    24   ar
     5    24    26    1
     6    26    27   ar
     7    27    28   ar
     8    28    29   ar
     9    29    30   ar
    10    30    31   ar
    11    24    25   ar
    12    25    19    1
    13    19    18    1
    14    18     1    1
    15     1     2    1
    16     2     3    1
    17     3     4   ar
    18     4     5   ar
    19     5     6   ar
    20     6    10    1
    21    10    11    2
    22    11    12    1
    23    12    13    2
    24    12    14   am
    25    14    15    1
    26     6     7   ar
    27     7     8   ar
    28     8     9    1
    29    25    21   ar
    30     9     1    1
    31    31    26   ar
    32     8     3   ar
    33    14    16    1
    34    15    17    1
