@<TRIPOS>MOLECULE
*****
 37 42 0 0 0
SMALL
GASTEIGER

@<TRIPOS>ATOM
      1 C         137.7896  142.8883  163.4265 C.3     1  UNL1        0.0932
      2 C         137.8727  142.6818  161.9431 C.3     1  UNL1        0.0286
      3 C         137.9117  141.2920  161.3803 C.3     1  UNL1        0.0193
      4 C         137.8675  140.1085  162.3009 C.3     1  UNL1        0.0700
      5 C         137.7843  140.3149  163.7843 C.3     1  UNL1        0.0193
      6 C         137.7454  141.7048  164.3471 C.3     1  UNL1        0.0286
      7 C         137.8437  140.8510  162.6559 C.3     1  UNL1        0.1562
      8 O         137.8084  142.1078  163.1649 O.3     1  UNL1       -0.3572
      9 N         137.9065  138.7187  161.7381 N.3     1  UNL1       -0.2926
     10 H         137.2949  138.7143  160.9218 H       1  UNL1        0.1236
     11 C         139.2123  138.1216  161.3040 C.3     1  UNL1        0.1152
     12 C         140.4348  138.2914  162.1563 C.ar    1  UNL1        0.0765
     13 C         140.6223  137.4400  163.3770 C.ar    1  UNL1        0.0193
     14 C         141.8448  137.6098  164.2293 C.ar    1  UNL1        0.0411
     15 C         142.8800  138.6310  163.8610 C.ar    1  UNL1        0.1708
     16 C         142.6925  139.4824  162.6404 C.ar    1  UNL1        0.1682
     17 N         141.4699  139.3126  161.7880 N.ar    1  UNL1       -0.2304
     18 N         143.7277  140.5036  162.2721 N.am    1  UNL1       -0.2639
     19 C         144.9502  140.6734  163.1245 C.2     1  UNL1        0.2718
     20 O         145.9853  141.6946  162.7562 O.2     1  UNL1       -0.2707
     21 C         145.1377  139.8220  164.3451 C.3     1  UNL1        0.2898
     22 O         144.1026  138.8007  164.7134 O.3     1  UNL1       -0.4628
     23 H         143.6046  141.0624  161.4710 H       1  UNL1        0.1565
     24 C         137.7506  144.2781  163.9893 C.3     1  UNL1        0.0319
     25 C         138.9157  144.8017  164.7758 C.3     1  UNL1        0.0304
     26 C         140.9789  141.9719  167.6016 C.ar    1  UNL1        0.2250
     27 C         142.3662  141.4885  167.2988 C.ar    1  UNL1        0.0593
     28 C         143.0658  141.9483  166.0542 C.ar    1  UNL1        0.0254
     29 C         142.3781  142.8916  165.1123 C.ar    1  UNL1        0.0988
     30 N         143.0776  143.3515  163.8676 N.ar    1  UNL1       -0.2423
     31 C         142.3899  144.2947  162.9257 C.ar    1  UNL1        0.0986
     32 C         141.0025  144.7782  163.2285 C.ar    1  UNL1        0.0179
     33 C         140.3030  144.3183  164.4731 C.ar    1  UNL1       -0.0013
     34 C         140.9908  143.3750  165.4150 C.ar    1  UNL1        0.0980
     35 N         140.2912  142.9151  166.6597 N.ar    1  UNL1       -0.2105
     36 C         139.4674  140.2509  168.8278 C.3     1  UNL1        0.2542
     37 O         140.2794  141.5120  168.8462 O.3     1  UNL1       -0.4561
@<TRIPOS>BOND
     1    36    37    1
     2    37    26    1
     3    26    27   ar
     4    27    28   ar
     5    28    29   ar
     6    29    30   ar
     7    30    31   ar
     8    31    32   ar
     9    32    33   ar
    10    33    25    1
    11    25    24    1
    12    24     1    1
    13     1     2    1
    14     2     3    1
    15     3     4    1
    16     4     9    1
    17     9    11    1
    18    11    12    1
    19    12    13   ar
    20    13    14   ar
    21    14    15   ar
    22    15    16   ar
    23    16    17   ar
    24    16    18    1
    25    18    19   am
    26    19    20    2
    27    19    21    1
    28    21    22    1
    29     4     5    1
    30     5     6    1
    31     4     7    1
    32     7     8    1
    33    33    34   ar
    34    34    35   ar
    35    35    26   ar
    36    34    29   ar
    37     6     1    1
    38     8     1    1
    39    17    12   ar
    40    22    15    1
    41     9    10    1
    42    18    23    1
@<TRIPOS>MOLECULE
*****
 37 42 0 0 0
SMALL
GASTEIGER

@<TRIPOS>ATOM
      1 C         142.1870  137.9580  164.0355 C.3     1  UNL1        0.0932
      2 C         142.5236  138.1943  162.5929 C.3     1  UNL1        0.0286
      3 C         143.6447  139.1209  162.2264 C.3     1  UNL1        0.0193
      4 C         144.4294  139.8112  163.3024 C.3     1  UNL1        0.0700
      5 C         144.0929  139.5750  164.7450 C.3     1  UNL1        0.0193
      6 C         142.9716  138.6483  165.1115 C.3     1  UNL1        0.0286
      7 C         143.8238  139.3124  163.5521 C.3     1  UNL1        0.1562
      8 O         142.8100  138.4745  163.8836 O.3     1  UNL1       -0.3572
      9 N         145.5506  140.7378  162.9359 N.3     1  UNL1       -0.2926
     10 H         145.5919  140.7615  161.9170 H       1  UNL1        0.1236
     11 C         145.5280  142.1635  163.4016 C.3     1  UNL1        0.1152
     12 C         144.2881  142.9896  163.2281 C.ar    1  UNL1        0.0765
     13 C         143.5364  143.4759  164.4317 C.ar    1  UNL1        0.0193
     14 C         142.2965  144.3020  164.2582 C.ar    1  UNL1        0.0411
     15 C         141.8083  144.6419  162.8812 C.ar    1  UNL1        0.1708
     16 C         142.5599  144.1557  161.6777 C.ar    1  UNL1        0.1682
     17 N         143.7999  143.3295  161.8511 N.ar    1  UNL1       -0.2304
     18 N         142.0717  144.4956  160.3007 N.am    1  UNL1       -0.2639
     19 C         140.8318  145.3217  160.1272 C.2     1  UNL1        0.2718
     20 O         140.3436  145.6616  158.7503 O.2     1  UNL1       -0.2707
     21 C         140.0801  145.8080  161.3308 C.3     1  UNL1        0.2898
     22 O         140.5683  145.4681  162.7078 O.3     1  UNL1       -0.4628
     23 H         142.5651  144.1764  159.5108 H       1  UNL1        0.1565
     24 C         141.0658  137.0315  164.4020 C.3     1  UNL1        0.0319
     25 C         139.7160  137.5872  164.7472 C.3     1  UNL1        0.0304
     26 C         139.5570  141.9911  165.6585 C.ar    1  UNL1        0.2250
     27 C         138.8674  142.9284  164.7120 C.ar    1  UNL1        0.0593
     28 C         138.2308  142.3977  163.4617 C.ar    1  UNL1        0.0254
     29 C         138.2838  140.9298  163.1580 C.ar    1  UNL1        0.0988
     30 N         137.6472  140.3992  161.9077 N.ar    1  UNL1       -0.2423
     31 C         137.7001  138.9313  161.6039 C.ar    1  UNL1        0.0986
     32 C         138.3898  137.9939  162.5504 C.ar    1  UNL1        0.0179
     33 C         139.0264  138.5245  163.8007 C.ar    1  UNL1       -0.0013
     34 C         138.9734  139.9925  164.1044 C.ar    1  UNL1        0.0980
     35 N         139.6100  140.5232  165.3547 N.ar    1  UNL1       -0.2105
     36 C         141.5760  142.0826  167.2910 C.3     1  UNL1        0.2542
     37 O         140.1936  142.5217  166.9087 O.3     1  UNL1       -0.4561
@<TRIPOS>BOND
     1    36    37    1
     2    37    26    1
     3    26    27   ar
     4    27    28   ar
     5    28    29   ar
     6    29    30   ar
     7    30    31   ar
     8    31    32   ar
     9    32    33   ar
    10    33    25    1
    11    25    24    1
    12    24     1    1
    13     1     2    1
    14     2     3    1
    15     3     4    1
    16     4     9    1
    17     9    11    1
    18    11    12    1
    19    12    13   ar
    20    13    14   ar
    21    14    15   ar
    22    15    16   ar
    23    16    17   ar
    24    16    18    1
    25    18    19   am
    26    19    20    2
    27    19    21    1
    28    21    22    1
    29     4     5    1
    30     5     6    1
    31     4     7    1
    32     7     8    1
    33    33    34   ar
    34    34    35   ar
    35    35    26   ar
    36    34    29   ar
    37     6     1    1
    38     8     1    1
    39    17    12   ar
    40    22    15    1
    41     9    10    1
    42    18    23    1
@<TRIPOS>MOLECULE
*****
 37 42 0 0 0
SMALL
GASTEIGER

@<TRIPOS>ATOM
      1 C         141.9710  138.1611  164.2317 C.3     1  UNL1        0.0932
      2 C         142.0407  138.6992  162.8333 C.3     1  UNL1        0.0286
      3 C         143.2263  139.5092  162.3996 C.3     1  UNL1        0.0193
      4 C         144.3424  139.7811  163.3644 C.3     1  UNL1        0.0700
      5 C         144.2727  139.2429  164.7627 C.3     1  UNL1        0.0193
      6 C         143.0869  138.4329  165.1964 C.3     1  UNL1        0.0286
      7 C         143.7131  139.3321  163.6478 C.3     1  UNL1        0.1562
      8 O         142.6410  138.5997  164.0400 O.3     1  UNL1       -0.3572
      9 N         145.5280  140.5910  162.9307 N.3     1  UNL1       -0.2926
     10 H         145.5881  140.5051  161.9161 H       1  UNL1        0.1236
     11 C         145.5911  142.0562  163.2457 C.3     1  UNL1        0.1152
     12 C         144.3581  142.9023  163.1288 C.ar    1  UNL1        0.0765
     13 C         143.6611  143.3870  164.3655 C.ar    1  UNL1        0.0193
     14 C         142.4280  144.2331  164.2487 C.ar    1  UNL1        0.0411
     15 C         141.8919  144.5945  162.8952 C.ar    1  UNL1        0.1708
     16 C         142.5888  144.1098  161.6585 C.ar    1  UNL1        0.1682
     17 N         143.8219  143.2637  161.7753 N.ar    1  UNL1       -0.2304
     18 N         142.0526  144.4711  160.3050 N.am    1  UNL1       -0.2639
     19 C         140.8196  145.3172  160.1882 C.2     1  UNL1        0.2718
     20 O         140.2834  145.6785  158.8347 O.2     1  UNL1       -0.2707
     21 C         140.1226  145.8019  161.4248 C.3     1  UNL1        0.2898
     22 O         140.6587  145.4406  162.7783 O.3     1  UNL1       -0.4628
     23 H         142.5101  144.1530  159.4934 H       1  UNL1        0.1565
     24 C         140.7854  137.3511  164.6654 C.3     1  UNL1        0.0319
     25 C         139.5562  138.0382  165.1824 C.3     1  UNL1        0.0304
     26 C         137.9398  141.3718  162.6282 C.ar    1  UNL1        0.2250
     27 C         138.0196  142.7906  163.1082 C.ar    1  UNL1        0.0593
     28 C         138.6381  143.0983  164.4397 C.ar    1  UNL1        0.0254
     29 C         139.1768  141.9871  165.2911 C.ar    1  UNL1        0.0988
     30 N         139.7954  142.2947  166.6226 N.ar    1  UNL1       -0.2423
     31 C         140.3341  141.1835  167.4740 C.ar    1  UNL1        0.0986
     32 C         140.2544  139.7646  166.9939 C.ar    1  UNL1        0.0179
     33 C         139.6359  139.4570  165.6624 C.ar    1  UNL1       -0.0013
     34 C         139.0971  140.5683  164.8110 C.ar    1  UNL1        0.0980
     35 N         138.4786  140.2606  163.4796 N.ar    1  UNL1       -0.2105
     36 C         137.4711  139.6970  160.6980 C.3     1  UNL1        0.2542
     37 O         137.3213  141.0642  161.2967 O.3     1  UNL1       -0.4561
@<TRIPOS>BOND
     1    36    37    1
     2    37    26    1
     3    26    27   ar
     4    27    28   ar
     5    28    29   ar
     6    29    30   ar
     7    30    31   ar
     8    31    32   ar
     9    32    33   ar
    10    33    25    1
    11    25    24    1
    12    24     1    1
    13     1     2    1
    14     2     3    1
    15     3     4    1
    16     4     9    1
    17     9    11    1
    18    11    12    1
    19    12    13   ar
    20    13    14   ar
    21    14    15   ar
    22    15    16   ar
    23    16    17   ar
    24    16    18    1
    25    18    19   am
    26    19    20    2
    27    19    21    1
    28    21    22    1
    29     4     5    1
    30     5     6    1
    31     4     7    1
    32     7     8    1
    33    33    34   ar
    34    34    35   ar
    35    35    26   ar
    36    34    29   ar
    37     6     1    1
    38     8     1    1
    39    17    12   ar
    40    22    15    1
    41     9    10    1
    42    18    23    1
@<TRIPOS>MOLECULE
*****
 37 42 0 0 0
SMALL
GASTEIGER

@<TRIPOS>ATOM
      1 C         139.1674  144.1910  162.9158 C.3     1  UNL1        0.0932
      2 C         139.9811  144.5140  164.1338 C.3     1  UNL1        0.0286
      3 C         141.4406  144.8324  163.9980 C.3     1  UNL1        0.0193
      4 C         142.0864  144.8278  162.6440 C.3     1  UNL1        0.0700
      5 C         141.2727  144.5049  161.4261 C.3     1  UNL1        0.0193
      6 C         139.8131  144.1865  161.5620 C.3     1  UNL1        0.0286
      7 C         141.2835  144.6470  162.6686 C.3     1  UNL1        0.1562
      8 O         139.9638  144.3591  162.7914 O.3     1  UNL1       -0.3572
      9 N         143.5459  145.1462  162.5082 N.3     1  UNL1       -0.2926
     10 H         143.7841  145.7703  163.2790 H       1  UNL1        0.1236
     11 C         144.5589  144.0401  162.5178 C.3     1  UNL1        0.1152
     12 C         144.1572  142.6589  162.9430 C.ar    1  UNL1        0.0765
     13 C         143.9120  141.5980  161.9113 C.ar    1  UNL1        0.0193
     14 C         143.5104  140.2168  162.3366 C.ar    1  UNL1        0.0411
     15 C         143.3539  139.8964  163.7936 C.ar    1  UNL1        0.1708
     16 C         143.5990  140.9572  164.8253 C.ar    1  UNL1        0.1682
     17 N         144.0007  142.3385  164.4001 N.ar    1  UNL1       -0.2304
     18 N         143.4425  140.6369  166.2823 N.am    1  UNL1       -0.2639
     19 C         143.0409  139.2557  166.7076 C.2     1  UNL1        0.2718
     20 O         142.8844  138.9353  168.1646 O.2     1  UNL1       -0.2707
     21 C         142.7956  138.1948  165.6759 C.3     1  UNL1        0.2898
     22 O         142.9521  138.5151  164.2189 O.3     1  UNL1       -0.4628
     23 H         143.6035  141.3331  166.9595 H       1  UNL1        0.1565
     24 C         137.7079  143.8726  163.0517 C.3     1  UNL1        0.0319
     25 C         137.2779  142.5468  163.6061 C.3     1  UNL1        0.0304
     26 C         138.5090  139.0017  166.0895 C.ar    1  UNL1        0.2250
     27 C         138.9445  137.7320  165.4200 C.ar    1  UNL1        0.0593
     28 C         138.9696  137.6440  163.9228 C.ar    1  UNL1        0.0254
     29 C         138.5592  138.8256  163.0950 C.ar    1  UNL1        0.0988
     30 N         138.5843  138.7376  161.5978 N.ar    1  UNL1       -0.2423
     31 C         138.1739  139.9192  160.7701 C.ar    1  UNL1        0.0986
     32 C         137.7385  141.1890  161.4395 C.ar    1  UNL1        0.0179
     33 C         137.7134  141.2771  162.9367 C.ar    1  UNL1       -0.0013
     34 C         138.1238  140.0953  163.7645 C.ar    1  UNL1        0.0980
     35 N         138.0987  140.1834  165.2617 N.ar    1  UNL1       -0.2105
     36 C         139.4540  139.9828  168.3018 C.3     1  UNL1        0.2542
     37 O         138.4839  139.0898  167.5867 O.3     1  UNL1       -0.4561
@<TRIPOS>BOND
     1    36    37    1
     2    37    26    1
     3    26    27   ar
     4    27    28   ar
     5    28    29   ar
     6    29    30   ar
     7    30    31   ar
     8    31    32   ar
     9    32    33   ar
    10    33    25    1
    11    25    24    1
    12    24     1    1
    13     1     2    1
    14     2     3    1
    15     3     4    1
    16     4     9    1
    17     9    11    1
    18    11    12    1
    19    12    13   ar
    20    13    14   ar
    21    14    15   ar
    22    15    16   ar
    23    16    17   ar
    24    16    18    1
    25    18    19   am
    26    19    20    2
    27    19    21    1
    28    21    22    1
    29     4     5    1
    30     5     6    1
    31     4     7    1
    32     7     8    1
    33    33    34   ar
    34    34    35   ar
    35    35    26   ar
    36    34    29   ar
    37     6     1    1
    38     8     1    1
    39    17    12   ar
    40    22    15    1
    41     9    10    1
    42    18    23    1
@<TRIPOS>MOLECULE
*****
 37 42 0 0 0
SMALL
GASTEIGER

@<TRIPOS>ATOM
      1 C         143.9928  142.1610  163.8792 C.3     1  UNL1        0.0932
      2 C         142.9081  142.5048  164.8566 C.3     1  UNL1        0.0286
      3 C         142.0675  143.7288  164.6442 C.3     1  UNL1        0.0193
      4 C         142.3116  144.6091  163.4544 C.3     1  UNL1        0.0700
      5 C         143.3963  144.2653  162.4770 C.3     1  UNL1        0.0193
      6 C         144.2369  143.0412  162.6895 C.3     1  UNL1        0.0286
      7 C         142.7979  143.9489  163.5287 C.3     1  UNL1        0.1562
      8 O         143.5580  142.8421  163.7207 O.3     1  UNL1       -0.3572
      9 N         141.4710  145.8331  163.2420 N.3     1  UNL1       -0.2926
     10 H         142.0938  146.5607  162.8910 H       1  UNL1        0.1236
     11 C         140.2954  145.7835  162.3117 C.3     1  UNL1        0.1152
     12 C         139.5140  144.5124  162.1577 C.ar    1  UNL1        0.0765
     13 C         138.4415  144.1667  163.1478 C.ar    1  UNL1        0.0193
     14 C         137.6601  142.8956  162.9939 C.ar    1  UNL1        0.0411
     15 C         137.9511  141.9702  161.8498 C.ar    1  UNL1        0.1708
     16 C         139.0235  142.3159  160.8596 C.ar    1  UNL1        0.1682
     17 N         139.8050  143.5870  161.0136 N.ar    1  UNL1       -0.2304
     18 N         139.3145  141.3905  159.7155 N.am    1  UNL1       -0.2639
     19 C         138.5331  140.1195  159.5616 C.2     1  UNL1        0.2718
     20 O         138.8241  139.1941  158.4174 O.2     1  UNL1       -0.2707
     21 C         137.4606  139.7737  160.5517 C.3     1  UNL1        0.2898
     22 O         137.1696  140.6991  161.6958 O.3     1  UNL1       -0.4628
     23 H         140.0184  141.6174  159.0657 H       1  UNL1        0.1565
     24 C         144.8333  140.9370  164.0916 C.3     1  UNL1        0.0319
     25 C         144.1797  139.6225  164.4003 C.3     1  UNL1        0.0304
     26 C         139.8386  138.7618  165.2147 C.ar    1  UNL1        0.2250
     27 C         139.0017  138.0778  164.1747 C.ar    1  UNL1        0.0593
     28 C         139.6118  137.6807  162.8632 C.ar    1  UNL1        0.0254
     29 C         141.0589  137.9676  162.5918 C.ar    1  UNL1        0.0988
     30 N         141.6690  137.5704  161.2803 N.ar    1  UNL1       -0.2423
     31 C         143.1160  137.8573  161.0088 C.ar    1  UNL1        0.0986
     32 C         143.9530  138.5414  162.0488 C.ar    1  UNL1        0.0179
     33 C         143.3429  138.9385  163.3603 C.ar    1  UNL1       -0.0013
     34 C         141.8957  138.6516  163.6318 C.ar    1  UNL1        0.0980
     35 N         141.2856  139.0487  164.9433 N.ar    1  UNL1       -0.2105
     36 C         137.8384  138.7139  166.8721 C.3     1  UNL1        0.2542
     37 O         139.2284  139.1590  166.5262 O.3     1  UNL1       -0.4561
@<TRIPOS>BOND
     1    36    37    1
     2    37    26    1
     3    26    27   ar
     4    27    28   ar
     5    28    29   ar
     6    29    30   ar
     7    30    31   ar
     8    31    32   ar
     9    32    33   ar
    10    33    25    1
    11    25    24    1
    12    24     1    1
    13     1     2    1
    14     2     3    1
    15     3     4    1
    16     4     9    1
    17     9    11    1
    18    11    12    1
    19    12    13   ar
    20    13    14   ar
    21    14    15   ar
    22    15    16   ar
    23    16    17   ar
    24    16    18    1
    25    18    19   am
    26    19    20    2
    27    19    21    1
    28    21    22    1
    29     4     5    1
    30     5     6    1
    31     4     7    1
    32     7     8    1
    33    33    34   ar
    34    34    35   ar
    35    35    26   ar
    36    34    29   ar
    37     6     1    1
    38     8     1    1
    39    17    12   ar
    40    22    15    1
    41     9    10    1
    42    18    23    1
@<TRIPOS>MOLECULE
*****
 37 42 0 0 0
SMALL
GASTEIGER

@<TRIPOS>ATOM
      1 C         141.0705  144.8762  162.9201 C.3     1  UNL1        0.0932
      2 C         142.1957  145.0060  163.9035 C.3     1  UNL1        0.0286
      3 C         143.5422  144.4280  163.5831 C.3     1  UNL1        0.0193
      4 C         143.7636  143.7203  162.2791 C.3     1  UNL1        0.0700
      5 C         142.6384  143.5906  161.2957 C.3     1  UNL1        0.0193
      6 C         141.2918  144.1686  161.6162 C.3     1  UNL1        0.0286
      7 C         143.0083  144.0207  162.4103 C.3     1  UNL1        0.1562
      8 O         141.7907  144.5433  162.7001 O.3     1  UNL1       -0.3572
      9 N         145.1102  143.1423  161.9587 N.3     1  UNL1       -0.2926
     10 H         145.7933  143.8838  162.1135 H       1  UNL1        0.1236
     11 C         145.6046  141.9362  162.7009 C.3     1  UNL1        0.1152
     12 C         144.6404  140.8671  163.1216 C.ar    1  UNL1        0.0765
     13 C         144.8286  140.1604  164.4313 C.ar    1  UNL1        0.0193
     14 C         143.8643  139.0913  164.8520 C.ar    1  UNL1        0.0411
     15 C         142.7118  138.7286  163.9631 C.ar    1  UNL1        0.1708
     16 C         142.5236  139.4352  162.6534 C.ar    1  UNL1        0.1682
     17 N         143.4879  140.5044  162.2326 N.ar    1  UNL1       -0.2304
     18 N         141.3711  139.0726  161.7644 N.am    1  UNL1       -0.2639
     19 C         140.4069  138.0034  162.1851 C.2     1  UNL1        0.2718
     20 O         139.2544  137.6408  161.2961 O.2     1  UNL1       -0.2707
     21 C         140.5951  137.2968  163.4948 C.3     1  UNL1        0.2898
     22 O         141.7476  137.6594  164.3838 O.3     1  UNL1       -0.4628
     23 H         141.2476  139.5363  160.9048 H       1  UNL1        0.1565
     24 C         139.7239  145.4542  163.2406 C.3     1  UNL1        0.0319
     25 C         138.8446  144.7883  164.2572 C.3     1  UNL1        0.0304
     26 C         140.7865  142.0009  167.2083 C.ar    1  UNL1        0.2250
     27 C         140.5302  140.5253  167.1268 C.ar    1  UNL1        0.0593
     28 C         139.6267  139.9787  166.0615 C.ar    1  UNL1        0.0254
     29 C         138.9794  140.9078  165.0778 C.ar    1  UNL1        0.0988
     30 N         138.0758  140.3612  164.0125 N.ar    1  UNL1       -0.2423
     31 C         137.4285  141.2903  163.0288 C.ar    1  UNL1        0.0986
     32 C         137.6847  142.7661  163.1103 C.ar    1  UNL1        0.0179
     33 C         138.5883  143.3127  164.1756 C.ar    1  UNL1       -0.0013
     34 C         139.2356  142.3835  165.1593 C.ar    1  UNL1        0.0980
     35 N         140.1392  142.9300  166.2246 N.ar    1  UNL1       -0.2105
     36 C         142.9061  141.7764  168.6939 C.3     1  UNL1        0.2542
     37 O         141.6901  142.5475  168.2736 O.3     1  UNL1       -0.4561
@<TRIPOS>BOND
     1    36    37    1
     2    37    26    1
     3    26    27   ar
     4    27    28   ar
     5    28    29   ar
     6    29    30   ar
     7    30    31   ar
     8    31    32   ar
     9    32    33   ar
    10    33    25    1
    11    25    24    1
    12    24     1    1
    13     1     2    1
    14     2     3    1
    15     3     4    1
    16     4     9    1
    17     9    11    1
    18    11    12    1
    19    12    13   ar
    20    13    14   ar
    21    14    15   ar
    22    15    16   ar
    23    16    17   ar
    24    16    18    1
    25    18    19   am
    26    19    20    2
    27    19    21    1
    28    21    22    1
    29     4     5    1
    30     5     6    1
    31     4     7    1
    32     7     8    1
    33    33    34   ar
    34    34    35   ar
    35    35    26   ar
    36    34    29   ar
    37     6     1    1
    38     8     1    1
    39    17    12   ar
    40    22    15    1
    41     9    10    1
    42    18    23    1
@<TRIPOS>MOLECULE
*****
 37 42 0 0 0
SMALL
GASTEIGER

@<TRIPOS>ATOM
      1 C         140.5484  137.6396  164.4423 C.3     1  UNL1        0.0932
      2 C         140.5417  137.4554  162.9537 C.3     1  UNL1        0.0286
      3 C         141.7622  137.7946  162.1505 C.3     1  UNL1        0.0193
      4 C         142.9896  138.3180  162.8360 C.3     1  UNL1        0.0700
      5 C         142.9963  138.5021  164.3247 C.3     1  UNL1        0.0193
      6 C         141.7756  138.1629  165.1278 C.3     1  UNL1        0.0286
      7 C         142.3448  138.1459  163.3183 C.3     1  UNL1        0.1562
      8 O         141.2411  137.8392  164.0445 O.3     1  UNL1       -0.3572
      9 N         144.2101  138.6572  162.0329 N.3     1  UNL1       -0.2926
     10 H         144.3437  137.8978  161.3651 H       1  UNL1        0.1236
     11 C         144.2616  139.9359  161.2503 C.3     1  UNL1        0.1152
     12 C         143.8188  141.2213  161.8840 C.ar    1  UNL1        0.0765
     13 C         144.6612  141.8630  162.9465 C.ar    1  UNL1        0.0193
     14 C         144.2184  143.1484  163.5802 C.ar    1  UNL1        0.0411
     15 C         142.9333  143.7922  163.1515 C.ar    1  UNL1        0.1708
     16 C         142.0909  143.1507  162.0890 C.ar    1  UNL1        0.1682
     17 N         142.5337  141.8652  161.4553 N.ar    1  UNL1       -0.2304
     18 N         140.8057  143.7946  161.6603 N.am    1  UNL1       -0.2639
     19 C         140.3630  145.0800  162.2940 C.2     1  UNL1        0.2718
     20 O         139.0778  145.7239  161.8653 O.2     1  UNL1       -0.2707
     21 C         141.2054  145.7216  163.3565 C.3     1  UNL1        0.2898
     22 O         142.4905  145.0777  163.7852 O.3     1  UNL1       -0.4628
     23 H         140.2529  143.3735  160.9630 H       1  UNL1        0.1565
     24 C         139.3278  137.3003  165.2455 C.3     1  UNL1        0.0319
     25 C         138.3158  138.3628  165.5570 C.3     1  UNL1        0.0304
     26 C         140.4757  141.3758  168.1078 C.ar    1  UNL1        0.2250
     27 C         140.6786  142.7749  167.6065 C.ar    1  UNL1        0.0593
     28 C         140.1615  143.1697  166.2549 C.ar    1  UNL1        0.0254
     29 C         139.4415  142.1654  165.4047 C.ar    1  UNL1        0.0988
     30 N         138.9244  142.5602  164.0531 N.ar    1  UNL1       -0.2423
     31 C         138.2045  141.5559  163.2028 C.ar    1  UNL1        0.0986
     32 C         138.0016  140.1567  163.7041 C.ar    1  UNL1        0.0179
     33 C         138.5186  139.7619  165.0557 C.ar    1  UNL1       -0.0013
     34 C         139.2386  140.7663  165.9060 C.ar    1  UNL1        0.0980
     35 N         139.7557  140.3715  167.2576 N.ar    1  UNL1       -0.2105
     36 C         140.1549  140.1251  170.3623 C.3     1  UNL1        0.2542
     37 O         140.9928  140.9810  169.4594 O.3     1  UNL1       -0.4561
@<TRIPOS>BOND
     1    36    37    1
     2    37    26    1
     3    26    27   ar
     4    27    28   ar
     5    28    29   ar
     6    29    30   ar
     7    30    31   ar
     8    31    32   ar
     9    32    33   ar
    10    33    25    1
    11    25    24    1
    12    24     1    1
    13     1     2    1
    14     2     3    1
    15     3     4    1
    16     4     9    1
    17     9    11    1
    18    11    12    1
    19    12    13   ar
    20    13    14   ar
    21    14    15   ar
    22    15    16   ar
    23    16    17   ar
    24    16    18    1
    25    18    19   am
    26    19    20    2
    27    19    21    1
    28    21    22    1
    29     4     5    1
    30     5     6    1
    31     4     7    1
    32     7     8    1
    33    33    34   ar
    34    34    35   ar
    35    35    26   ar
    36    34    29   ar
    37     6     1    1
    38     8     1    1
    39    17    12   ar
    40    22    15    1
    41     9    10    1
    42    18    23    1
@<TRIPOS>MOLECULE
*****
 37 42 0 0 0
SMALL
GASTEIGER

@<TRIPOS>ATOM
      1 C         138.0135  139.8222  162.4126 C.3     1  UNL1        0.0932
      2 C         138.1834  140.6244  161.1565 C.3     1  UNL1        0.0286
      3 C         138.0833  142.1204  161.2028 C.3     1  UNL1        0.0193
      4 C         137.8134  142.8141  162.5051 C.3     1  UNL1        0.0700
      5 C         137.6436  142.0119  163.7611 C.3     1  UNL1        0.0193
      6 C         137.7437  140.5159  163.7148 C.3     1  UNL1        0.0286
      7 C         137.8597  141.9924  162.5294 C.3     1  UNL1        0.1562
      8 O         137.9502  140.6398  162.4876 O.3     1  UNL1       -0.3572
      9 N         137.7134  144.3100  162.5513 N.3     1  UNL1       -0.2926
     10 H         136.9524  144.5346  163.1923 H       1  UNL1        0.1236
     11 C         138.8957  145.1279  162.9794 C.3     1  UNL1        0.1152
     12 C         140.2680  144.5225  162.9740 C.ar    1  UNL1        0.0765
     13 C         140.9369  144.1689  164.2693 C.ar    1  UNL1        0.0193
     14 C         142.3093  143.5635  164.2639 C.ar    1  UNL1        0.0411
     15 C         143.0128  143.3116  162.9632 C.ar    1  UNL1        0.1708
     16 C         142.3440  143.6651  161.6680 C.ar    1  UNL1        0.1682
     17 N         140.9715  144.2706  161.6734 N.ar    1  UNL1       -0.2304
     18 N         143.0475  143.4133  160.3674 N.am    1  UNL1       -0.2639
     19 C         144.4198  142.8078  160.3620 C.2     1  UNL1        0.2718
     20 O         145.1234  142.5559  159.0614 O.2     1  UNL1       -0.2707
     21 C         145.0887  142.4542  161.6573 C.3     1  UNL1        0.2898
     22 O         144.3852  142.7061  162.9579 O.3     1  UNL1       -0.4628
     23 H         142.6085  143.6453  159.5173 H       1  UNL1        0.1565
     24 C         138.1136  138.3263  162.3663 C.3     1  UNL1        0.0319
     25 C         139.2528  137.6293  163.0494 C.3     1  UNL1        0.0304
     26 C         141.2176  139.6731  166.5440 C.ar    1  UNL1        0.2250
     27 C         142.6123  140.2092  166.4120 C.ar    1  UNL1        0.0593
     28 C         143.3520  140.0641  165.1152 C.ar    1  UNL1        0.0254
     29 C         142.6971  139.3828  163.9504 C.ar    1  UNL1        0.0988
     30 N         143.4369  139.2377  162.6536 N.ar    1  UNL1       -0.2423
     31 C         142.7819  138.5564  161.4887 C.ar    1  UNL1        0.0986
     32 C         141.3872  138.0203  161.6206 C.ar    1  UNL1        0.0179
     33 C         140.6475  138.1654  162.9174 C.ar    1  UNL1       -0.0013
     34 C         141.3025  138.8467  164.0823 C.ar    1  UNL1        0.0980
     35 N         140.5627  138.9919  165.3791 N.ar    1  UNL1       -0.2105
     36 C         141.2357  140.0460  169.1151 C.3     1  UNL1        0.2542
     37 O         140.4779  139.8183  167.8408 O.3     1  UNL1       -0.4561
@<TRIPOS>BOND
     1    36    37    1
     2    37    26    1
     3    26    27   ar
     4    27    28   ar
     5    28    29   ar
     6    29    30   ar
     7    30    31   ar
     8    31    32   ar
     9    32    33   ar
    10    33    25    1
    11    25    24    1
    12    24     1    1
    13     1     2    1
    14     2     3    1
    15     3     4    1
    16     4     9    1
    17     9    11    1
    18    11    12    1
    19    12    13   ar
    20    13    14   ar
    21    14    15   ar
    22    15    16   ar
    23    16    17   ar
    24    16    18    1
    25    18    19   am
    26    19    20    2
    27    19    21    1
    28    21    22    1
    29     4     5    1
    30     5     6    1
    31     4     7    1
    32     7     8    1
    33    33    34   ar
    34    34    35   ar
    35    35    26   ar
    36    34    29   ar
    37     6     1    1
    38     8     1    1
    39    17    12   ar
    40    22    15    1
    41     9    10    1
    42    18    23    1
@<TRIPOS>MOLECULE
*****
 37 42 0 0 0
SMALL
GASTEIGER

@<TRIPOS>ATOM
      1 C         137.7928  142.7415  163.2799 C.3     1  UNL1        0.0932
      2 C         138.1523  142.9496  161.8386 C.3     1  UNL1        0.0286
      3 C         138.2730  141.7714  160.9181 C.3     1  UNL1        0.0193
      4 C         138.0341  140.3851  161.4389 C.3     1  UNL1        0.0700
      5 C         137.6746  140.1771  162.8803 C.3     1  UNL1        0.0193
      6 C         137.5539  141.3553  163.8008 C.3     1  UNL1        0.0286
      7 C         137.9564  140.9997  161.9814 C.3     1  UNL1        0.1562
      8 O         137.8473  142.0650  162.8137 O.3     1  UNL1       -0.3572
      9 N         138.1548  139.2069  160.5185 N.3     1  UNL1       -0.2926
     10 H         138.3515  139.5783  159.5891 H       1  UNL1        0.1236
     11 C         139.1816  138.1471  160.7875 C.3     1  UNL1        0.1152
     12 C         140.4775  138.5093  161.4501 C.ar    1  UNL1        0.0765
     13 C         141.5536  139.2000  160.6658 C.ar    1  UNL1        0.0193
     14 C         142.8496  139.5623  161.3285 C.ar    1  UNL1        0.0411
     15 C         143.0696  139.2339  162.7754 C.ar    1  UNL1        0.1708
     16 C         141.9936  138.5432  163.5598 C.ar    1  UNL1        0.1682
     17 N         140.6976  138.1809  162.8971 N.ar    1  UNL1       -0.2304
     18 N         142.2136  138.2148  165.0067 N.am    1  UNL1       -0.2639
     19 C         143.5096  138.5770  165.6694 C.2     1  UNL1        0.2718
     20 O         143.7296  138.2486  167.1164 O.2     1  UNL1       -0.2707
     21 C         144.5857  139.2677  164.8851 C.3     1  UNL1        0.2898
     22 O         144.3657  139.5961  163.4381 O.3     1  UNL1       -0.4628
     23 H         141.5074  137.7615  165.5215 H       1  UNL1        0.1565
     24 C         137.6721  143.9197  164.2004 C.3     1  UNL1        0.0319
     25 C         138.9060  144.6160  164.6932 C.3     1  UNL1        0.0304
     26 C         142.1703  144.3792  161.6048 C.ar    1  UNL1        0.2250
     27 C         143.4143  143.5903  161.8874 C.ar    1  UNL1        0.0593
     28 C         143.5703  142.8803  163.1995 C.ar    1  UNL1        0.0254
     29 C         142.4823  142.9592  164.2289 C.ar    1  UNL1        0.0988
     30 N         142.6383  142.2492  165.5410 N.ar    1  UNL1       -0.2423
     31 C         141.5502  142.3281  166.5705 C.ar    1  UNL1        0.0986
     32 C         140.3061  143.1170  166.2879 C.ar    1  UNL1        0.0179
     33 C         140.1501  143.8271  164.9758 C.ar    1  UNL1       -0.0013
     34 C         141.2382  143.7481  163.9463 C.ar    1  UNL1        0.0980
     35 N         141.0822  144.4581  162.6342 N.ar    1  UNL1       -0.2105
     36 C         140.6451  145.3412  159.7344 C.3     1  UNL1        0.2542
     37 O         142.0143  145.0892  160.2927 O.3     1  UNL1       -0.4561
@<TRIPOS>BOND
     1    36    37    1
     2    37    26    1
     3    26    27   ar
     4    27    28   ar
     5    28    29   ar
     6    29    30   ar
     7    30    31   ar
     8    31    32   ar
     9    32    33   ar
    10    33    25    1
    11    25    24    1
    12    24     1    1
    13     1     2    1
    14     2     3    1
    15     3     4    1
    16     4     9    1
    17     9    11    1
    18    11    12    1
    19    12    13   ar
    20    13    14   ar
    21    14    15   ar
    22    15    16   ar
    23    16    17   ar
    24    16    18    1
    25    18    19   am
    26    19    20    2
    27    19    21    1
    28    21    22    1
    29     4     5    1
    30     5     6    1
    31     4     7    1
    32     7     8    1
    33    33    34   ar
    34    34    35   ar
    35    35    26   ar
    36    34    29   ar
    37     6     1    1
    38     8     1    1
    39    17    12   ar
    40    22    15    1
    41     9    10    1
    42    18    23    1
