@<TRIPOS>MOLECULE
*****
 40 44 0 0 0
SMALL
GASTEIGER

@<TRIPOS>ATOM
      1 N         139.9232  141.4451  163.4172 N.3     1  UNL1       -0.2671
      2 C         141.1801  141.1490  162.6540 C.3     1  UNL1        0.0899
      3 C         141.4908  141.9069  161.3974 C.3     1  UNL1        0.0896
      4 N         140.5445  142.9610  160.9039 N.3     1  UNL1       -0.2728
      5 C         139.2876  143.2571  161.6670 C.3     1  UNL1        0.0882
      6 C         138.9769  142.4992  162.9236 C.3     1  UNL1        0.0739
      7 C         137.7199  142.7953  163.6867 C.3     1  UNL1        0.0188
      8 C         138.9487  139.3444  164.7522 C.3     1  UNL1        0.1382
      9 C         138.8370  138.9664  166.1995 C.3     1  UNL1        0.0573
     10 C         139.4319  140.0756  167.0155 C.ar    1  UNL1       -0.0224
     11 C         139.5991  140.2545  168.4954 C.ar    1  UNL1       -0.0006
     12 C         140.2456  141.4970  169.0322 C.ar    1  UNL1        0.0711
     13 C         140.7249  142.5605  168.0893 C.ar    1  UNL1        0.0036
     14 C         140.5577  142.3816  166.6094 C.ar    1  UNL1       -0.0033
     15 C         139.9112  141.1391  166.0726 C.ar    1  UNL1       -0.0093
     16 C         139.6125  140.6872  164.6738 C.3     1  UNL1        0.1077
     17 C         140.4128  141.6759  170.5122 C.3     1  UNL1        0.4186
     18 F         140.5800  141.8550  171.9920 F       1  UNL1       -0.1659
     19 F         139.6033  142.9373  170.4510 F       1  UNL1       -0.1659
     20 F         141.2223  140.4146  170.5733 F       1  UNL1       -0.1659
     21 O         138.4789  138.5237  163.5878 O.3     1  UNL1       -0.3542
     22 C         140.7459  137.2584  163.4909 C.3     1  UNL1        0.0346
     23 C         139.4458  137.6454  162.8506 C.3     1  UNL1        0.1422
     24 C         140.8552  143.7189  159.6473 C.3     1  UNL1        0.0488
     25 C         142.1193  143.9619  160.4174 C.3     1  UNL1        0.0161
     26 C         139.4832  143.2126  159.3137 C.3     1  UNL1        0.0362
     27 C         138.8608  143.5485  157.9909 C.3     1  UNL1        0.0951
     28 N         139.6105  144.3909  157.0017 N.am    1  UNL1       -0.2759
     29 C         138.9882  144.7269  155.6789 C.2     1  UNL1        0.2513
     30 O         137.6162  144.2206  155.3452 O.2     1  UNL1       -0.2698
     31 C         140.9825  144.8972  157.3354 C.3     1  UNL1        0.0951
     32 C         141.6048  144.5612  158.6581 C.3     1  UNL1        0.0362
     33 C         139.7379  145.5692  154.6897 C.ar    1  UNL1        0.0807
     34 C         139.6697  147.0652  154.7747 C.ar    1  UNL1        0.0666
     35 C         138.8519  147.7189  155.8490 C.3     1  UNL1        0.0523
     36 N         140.4193  147.9076  153.7855 N.ar    1  UNL1       -0.2282
     37 C         141.2371  147.2539  152.7113 C.ar    1  UNL1        0.1982
     38 N         141.3053  145.7579  152.6262 N.ar    1  UNL1       -0.2282
     39 C         140.5557  144.9155  153.6154 C.ar    1  UNL1        0.0666
     40 C         140.6238  143.4195  153.5304 C.3     1  UNL1        0.0523
@<TRIPOS>BOND
     1    22    23    1
     2    23    21    1
     3     8    21    1
     4     8     9    1
     5     9    10    1
     6    10    11   ar
     7    11    12   ar
     8    12    17    1
     9    17    18    1
    10    17    19    1
    11    17    20    1
    12    12    13   ar
    13    13    14   ar
    14    14    15   ar
    15    15    16    1
    16    16     1    1
    17     1     2    1
    18     2     3    1
    19     3     4    1
    20     4    24    1
    21    24    25    1
    22    24    26    1
    23    26    27    1
    24    27    28    1
    25    28    29   am
    26    29    30    2
    27    29    33    1
    28    33    34   ar
    29    34    35    1
    30    34    36   ar
    31    36    37   ar
    32    37    38   ar
    33    38    39   ar
    34    39    40    1
    35    28    31    1
    36    31    32    1
    37     4     5    1
    38     5     6    1
    39     6     7    1
    40    16     8    1
    41     6     1    1
    42    15    10   ar
    43    32    24    1
    44    39    33   ar
@<TRIPOS>MOLECULE
*****
 40 44 0 0 0
SMALL
GASTEIGER

@<TRIPOS>ATOM
      1 N         140.7912  140.9161  163.4996 N.3     1  UNL1       -0.2671
      2 C         139.9549  141.6438  162.4893 C.3     1  UNL1        0.0899
      3 C         140.5809  142.1546  161.2255 C.3     1  UNL1        0.0896
      4 N         142.0433  141.9377  160.9720 N.3     1  UNL1       -0.2728
      5 C         142.8797  141.2100  161.9823 C.3     1  UNL1        0.0882
      6 C         142.2538  140.6991  163.2461 C.3     1  UNL1        0.0739
      7 C         143.0902  139.9714  164.2564 C.3     1  UNL1        0.0188
      8 C         139.2658  139.2107  164.8815 C.3     1  UNL1        0.1382
      9 C         138.8735  139.0665  166.3221 C.3     1  UNL1        0.0573
     10 C         139.5306  140.1719  167.0944 C.ar    1  UNL1       -0.0224
     11 C         139.5051  140.5319  168.5503 C.ar    1  UNL1       -0.0006
     12 C         140.2779  141.7193  169.0428 C.ar    1  UNL1        0.0711
     13 C         141.0763  142.5467  168.0795 C.ar    1  UNL1        0.0036
     14 C         141.1018  142.1867  166.6236 C.ar    1  UNL1       -0.0033
     15 C         140.3289  140.9993  166.1310 C.ar    1  UNL1       -0.0093
     16 C         140.1653  140.4052  164.7634 C.3     1  UNL1        0.1077
     17 C         140.2524  142.0794  170.4988 C.3     1  UNL1        0.4186
     18 F         140.2269  142.4394  171.9547 F       1  UNL1       -0.1659
     19 F         140.1100  140.6293  170.8549 F       1  UNL1       -0.1659
     20 F         140.3948  143.5295  170.1427 F       1  UNL1       -0.1659
     21 O         138.8343  138.3172  163.7565 O.3     1  UNL1       -0.3542
     22 C         141.0635  136.9904  163.6148 C.3     1  UNL1        0.0346
     23 C         139.8610  137.5853  162.9440 C.3     1  UNL1        0.1422
     24 C         142.6693  142.4486  159.7082 C.3     1  UNL1        0.0488
     25 C         142.0925  143.7240  160.2473 C.3     1  UNL1        0.0161
     26 C         143.0286  140.9957  159.6081 C.3     1  UNL1        0.0362
     27 C         143.8136  140.4966  158.4314 C.3     1  UNL1        0.0951
     28 N         144.2393  141.4503  157.3548 N.am    1  UNL1       -0.2759
     29 C         145.0242  140.9513  156.1781 C.2     1  UNL1        0.2513
     30 O         145.3836  139.4984  156.0779 O.2     1  UNL1       -0.2698
     31 C         143.8799  142.9033  157.4549 C.3     1  UNL1        0.0951
     32 C         143.0950  143.4024  158.6316 C.3     1  UNL1        0.0362
     33 C         145.4500  141.9051  155.1014 C.ar    1  UNL1        0.0807
     34 C         146.7323  142.6705  155.2417 C.ar    1  UNL1        0.0666
     35 C         147.5889  142.4821  156.4586 C.3     1  UNL1        0.0523
     36 N         147.1581  143.6243  154.1651 N.ar    1  UNL1       -0.2282
     37 C         146.3015  143.8126  152.9482 C.ar    1  UNL1        0.1982
     38 N         145.0191  143.0472  152.8080 N.ar    1  UNL1       -0.2282
     39 C         144.5933  142.0934  153.8845 C.ar    1  UNL1        0.0666
     40 C         143.3110  141.3280  153.7443 C.3     1  UNL1        0.0523
@<TRIPOS>BOND
     1    22    23    1
     2    23    21    1
     3     8    21    1
     4     8     9    1
     5     9    10    1
     6    10    11   ar
     7    11    12   ar
     8    12    17    1
     9    17    18    1
    10    17    19    1
    11    17    20    1
    12    12    13   ar
    13    13    14   ar
    14    14    15   ar
    15    15    16    1
    16    16     1    1
    17     1     2    1
    18     2     3    1
    19     3     4    1
    20     4    24    1
    21    24    25    1
    22    24    26    1
    23    26    27    1
    24    27    28    1
    25    28    29   am
    26    29    30    2
    27    29    33    1
    28    33    34   ar
    29    34    35    1
    30    34    36   ar
    31    36    37   ar
    32    37    38   ar
    33    38    39   ar
    34    39    40    1
    35    28    31    1
    36    31    32    1
    37     4     5    1
    38     5     6    1
    39     6     7    1
    40    16     8    1
    41     6     1    1
    42    15    10   ar
    43    32    24    1
    44    39    33   ar
@<TRIPOS>MOLECULE
*****
 40 44 0 0 0
SMALL
GASTEIGER

@<TRIPOS>ATOM
      1 N         140.5696  144.4012  158.5323 N.3     1  UNL1       -0.2671
      2 C         141.3522  145.0062  159.6598 C.3     1  UNL1        0.0899
      3 C         141.0327  144.6362  161.0779 C.3     1  UNL1        0.0896
      4 N         139.9304  143.6613  161.3685 N.3     1  UNL1       -0.2728
      5 C         139.1477  143.0563  160.2409 C.3     1  UNL1        0.0882
      6 C         139.4673  143.4262  158.8228 C.3     1  UNL1        0.0739
      7 C         138.6846  142.8212  157.6953 C.3     1  UNL1        0.0188
      8 C         141.7502  143.9849  156.1705 C.3     1  UNL1        0.1382
      9 C         141.7970  144.7202  154.8639 C.3     1  UNL1        0.0573
     10 C         140.9649  145.9608  155.0000 C.ar    1  UNL1       -0.0224
     11 C         140.6456  147.0658  154.0372 C.ar    1  UNL1       -0.0006
     12 C         139.7652  148.2023  154.4653 C.ar    1  UNL1        0.0711
     13 C         139.2042  148.2338  155.8560 C.ar    1  UNL1        0.0036
     14 C         139.5235  147.1288  156.8188 C.ar    1  UNL1       -0.0033
     15 C         140.4038  145.9923  156.3908 C.ar    1  UNL1       -0.0093
     16 C         140.8892  144.7712  157.1141 C.3     1  UNL1        0.1077
     17 C         139.4459  149.3074  153.5025 C.3     1  UNL1        0.4186
     18 F         139.1266  150.4124  152.5397 F       1  UNL1       -0.1659
     19 F         140.0782  148.5224  152.3917 F       1  UNL1       -0.1659
     20 F         138.8136  150.0925  154.6132 F       1  UNL1       -0.1659
     21 O         142.4428  142.6907  156.4792 O.3     1  UNL1       -0.3542
     22 C         143.4835  142.1208  158.7905 C.3     1  UNL1        0.0346
     23 C         143.6241  142.6741  157.4035 C.3     1  UNL1        0.1422
     24 C         139.6108  143.2913  162.7866 C.3     1  UNL1        0.0488
     25 C         138.7034  144.4733  162.6149 C.3     1  UNL1        0.0161
     26 C         140.6293  142.2379  162.4657 C.3     1  UNL1        0.0362
     27 C         141.0131  141.2249  163.5033 C.3     1  UNL1        0.0951
     28 N         140.3784  141.2654  164.8618 N.am    1  UNL1       -0.2759
     29 C         140.7621  140.2525  165.8995 C.2     1  UNL1        0.2513
     30 O         141.7806  139.1990  165.5787 O.2     1  UNL1       -0.2698
     31 C         139.3599  142.3190  165.1826 C.3     1  UNL1        0.0951
     32 C         138.9761  143.3318  164.1451 C.3     1  UNL1        0.0362
     33 C         140.1274  140.2930  167.2580 C.ar    1  UNL1        0.0807
     34 C         140.7375  141.1257  168.3463 C.ar    1  UNL1        0.0666
     35 C         141.9823  141.9179  168.0760 C.3     1  UNL1        0.0523
     36 N         140.1028  141.1663  169.7048 N.ar    1  UNL1       -0.2282
     37 C         138.8580  140.3741  169.9750 C.ar    1  UNL1        0.1982
     38 N         138.2480  139.5414  168.8868 N.ar    1  UNL1       -0.2282
     39 C         138.8826  139.5008  167.5282 C.ar    1  UNL1        0.0666
     40 C         138.2725  138.6682  166.4399 C.3     1  UNL1        0.0523
@<TRIPOS>BOND
     1    22    23    1
     2    23    21    1
     3     8    21    1
     4     8     9    1
     5     9    10    1
     6    10    11   ar
     7    11    12   ar
     8    12    17    1
     9    17    18    1
    10    17    19    1
    11    17    20    1
    12    12    13   ar
    13    13    14   ar
    14    14    15   ar
    15    15    16    1
    16    16     1    1
    17     1     2    1
    18     2     3    1
    19     3     4    1
    20     4    24    1
    21    24    25    1
    22    24    26    1
    23    26    27    1
    24    27    28    1
    25    28    29   am
    26    29    30    2
    27    29    33    1
    28    33    34   ar
    29    34    35    1
    30    34    36   ar
    31    36    37   ar
    32    37    38   ar
    33    38    39   ar
    34    39    40    1
    35    28    31    1
    36    31    32    1
    37     4     5    1
    38     5     6    1
    39     6     7    1
    40    16     8    1
    41     6     1    1
    42    15    10   ar
    43    32    24    1
    44    39    33   ar
@<TRIPOS>MOLECULE
*****
 40 44 0 0 0
SMALL
GASTEIGER

@<TRIPOS>ATOM
      1 N         140.9660  140.8216  162.9130 N.3     1  UNL1       -0.2671
      2 C         142.0204  141.0513  161.8712 C.3     1  UNL1        0.0899
      3 C         141.9314  140.3522  160.5471 C.3     1  UNL1        0.0896
      4 N         140.7880  139.4233  160.2647 N.3     1  UNL1       -0.2728
      5 C         139.7336  139.1935  161.3064 C.3     1  UNL1        0.0882
      6 C         139.8225  139.8926  162.6306 C.3     1  UNL1        0.0739
      7 C         138.7680  139.6628  163.6723 C.3     1  UNL1        0.0188
      8 C         140.6320  142.9319  164.5192 C.3     1  UNL1        0.1382
      9 C         140.8981  143.2147  165.9680 C.3     1  UNL1        0.0573
     10 C         141.4855  141.9782  166.5814 C.ar    1  UNL1       -0.0224
     11 C         141.9446  141.6705  167.9758 C.ar    1  UNL1       -0.0006
     12 C         142.5006  140.3157  168.3004 C.ar    1  UNL1        0.0711
     13 C         142.5975  139.2687  167.2306 C.ar    1  UNL1        0.0036
     14 C         142.1384  139.5765  165.8362 C.ar    1  UNL1       -0.0033
     15 C         141.5824  140.9313  165.5116 C.ar    1  UNL1       -0.0093
     16 C         141.0549  141.5207  164.2371 C.3     1  UNL1        0.1077
     17 C         142.9598  140.0078  169.6949 C.3     1  UNL1        0.4186
     18 F         143.4189  139.7000  171.0893 F       1  UNL1       -0.1659
     19 F         142.2335  138.6964  169.6445 F       1  UNL1       -0.1659
     20 F         143.6860  141.3193  169.7453 F       1  UNL1       -0.1659
     21 O         140.0459  143.8918  163.5267 O.3     1  UNL1       -0.3542
     22 C         137.5615  143.1688  163.7613 C.3     1  UNL1        0.0346
     23 C         138.7121  143.6049  162.9034 C.3     1  UNL1        0.1422
     24 C         140.6991  138.7241  158.9405 C.3     1  UNL1        0.0488
     25 C         139.2481  138.7494  159.3198 C.3     1  UNL1        0.0161
     26 C         142.1810  138.9417  159.0213 C.3     1  UNL1        0.0362
     27 C         143.0702  138.4689  157.9096 C.3     1  UNL1        0.0951
     28 N         142.4773  137.7786  156.7171 N.am    1  UNL1       -0.2759
     29 C         143.3664  137.3057  155.6053 C.2     1  UNL1        0.2513
     30 O         144.8484  137.5233  155.6860 O.2     1  UNL1       -0.2698
     31 C         140.9953  137.5610  156.6364 C.3     1  UNL1        0.0951
     32 C         140.1063  138.0338  157.7481 C.3     1  UNL1        0.0362
     33 C         142.7735  136.6154  154.4129 C.ar    1  UNL1        0.0807
     34 C         142.6621  135.1197  154.3908 C.ar    1  UNL1        0.0666
     35 C         143.1434  134.3144  155.5612 C.3     1  UNL1        0.0523
     36 N         142.0693  134.4293  153.1984 N.ar    1  UNL1       -0.2282
     37 C         141.5879  135.2346  152.0279 C.ar    1  UNL1        0.1982
     38 N         141.6994  136.7303  152.0500 N.ar    1  UNL1       -0.2282
     39 C         142.2922  137.4207  153.2424 C.ar    1  UNL1        0.0666
     40 C         142.4037  138.9164  153.2645 C.3     1  UNL1        0.0523
@<TRIPOS>BOND
     1    22    23    1
     2    23    21    1
     3     8    21    1
     4     8     9    1
     5     9    10    1
     6    10    11   ar
     7    11    12   ar
     8    12    17    1
     9    17    18    1
    10    17    19    1
    11    17    20    1
    12    12    13   ar
    13    13    14   ar
    14    14    15   ar
    15    15    16    1
    16    16     1    1
    17     1     2    1
    18     2     3    1
    19     3     4    1
    20     4    24    1
    21    24    25    1
    22    24    26    1
    23    26    27    1
    24    27    28    1
    25    28    29   am
    26    29    30    2
    27    29    33    1
    28    33    34   ar
    29    34    35    1
    30    34    36   ar
    31    36    37   ar
    32    37    38   ar
    33    38    39   ar
    34    39    40    1
    35    28    31    1
    36    31    32    1
    37     4     5    1
    38     5     6    1
    39     6     7    1
    40    16     8    1
    41     6     1    1
    42    15    10   ar
    43    32    24    1
    44    39    33   ar
@<TRIPOS>MOLECULE
*****
 40 44 0 0 0
SMALL
GASTEIGER

@<TRIPOS>ATOM
      1 N         141.7023  140.5760  162.9207 N.3     1  UNL1       -0.2671
      2 C         140.7197  141.2042  161.9776 C.3     1  UNL1        0.0899
      3 C         140.4311  140.5581  160.6550 C.3     1  UNL1        0.0896
      4 N         141.1253  139.2836  160.2755 N.3     1  UNL1       -0.2728
      5 C         142.1080  138.6553  161.2187 C.3     1  UNL1        0.0882
      6 C         142.3965  139.3015  162.5413 C.3     1  UNL1        0.0739
      7 C         143.3792  138.6732  163.4845 C.3     1  UNL1        0.0188
      8 C         142.8963  142.3959  164.4723 C.3     1  UNL1        0.1382
      9 C         142.8896  142.7071  165.9396 C.3     1  UNL1        0.0573
     10 C         141.9801  141.7257  166.6175 C.ar    1  UNL1       -0.0224
     11 C         141.5859  141.5492  168.0540 C.ar    1  UNL1       -0.0006
     12 C         140.6362  140.4549  168.4420 C.ar    1  UNL1        0.0711
     13 C         140.0807  139.5371  167.3936 C.ar    1  UNL1        0.0036
     14 C         140.4749  139.7137  165.9572 C.ar    1  UNL1       -0.0033
     15 C         141.4246  140.8079  165.5691 C.ar    1  UNL1       -0.0093
     16 C         141.9909  141.2221  164.2433 C.3     1  UNL1        0.1077
     17 C         140.2420  140.2784  169.8785 C.3     1  UNL1        0.4186
     18 F         139.8477  140.1018  171.3150 F       1  UNL1       -0.1659
     19 F         139.2367  141.3827  169.7383 F       1  UNL1       -0.1659
     20 F         141.2473  139.1740  170.0187 F       1  UNL1       -0.1659
     21 O         143.6722  143.1296  163.4189 O.3     1  UNL1       -0.3542
     22 C         145.7776  141.6231  163.6374 C.3     1  UNL1        0.0346
     23 C         144.8872  142.4984  162.8062 C.3     1  UNL1        0.1422
     24 C         140.8367  138.6375  158.9529 C.3     1  UNL1        0.0488
     25 C         139.4418  138.9788  159.3860 C.3     1  UNL1        0.0161
     26 C         142.3319  138.5206  158.9793 C.3     1  UNL1        0.0362
     27 C         143.0542  137.8761  157.8335 C.3     1  UNL1        0.0951
     28 N         142.2812  137.3484  156.6612 N.am    1  UNL1       -0.2759
     29 C         143.0033  136.7039  155.5154 C.2     1  UNL1        0.2513
     30 O         144.4986  136.5870  155.5417 O.2     1  UNL1       -0.2698
     31 C         140.7859  137.4654  156.6349 C.3     1  UNL1        0.0951
     32 C         140.0638  138.1099  157.7807 C.3     1  UNL1        0.0362
     33 C         142.2304  136.1763  154.3431 C.ar    1  UNL1        0.0807
     34 C         142.0047  137.0450  153.1413 C.ar    1  UNL1        0.0666
     35 C         142.5520  138.4413  153.1117 C.3     1  UNL1        0.0523
     36 N         141.2318  136.5175  151.9690 N.ar    1  UNL1       -0.2282
     37 C         140.6845  135.1211  151.9986 C.ar    1  UNL1        0.1982
     38 N         140.9101  134.2525  153.2004 N.ar    1  UNL1       -0.2282
     39 C         141.6831  134.7800  154.3727 C.ar    1  UNL1        0.0666
     40 C         141.9087  133.9113  155.5745 C.3     1  UNL1        0.0523
@<TRIPOS>BOND
     1    22    23    1
     2    23    21    1
     3     8    21    1
     4     8     9    1
     5     9    10    1
     6    10    11   ar
     7    11    12   ar
     8    12    17    1
     9    17    18    1
    10    17    19    1
    11    17    20    1
    12    12    13   ar
    13    13    14   ar
    14    14    15   ar
    15    15    16    1
    16    16     1    1
    17     1     2    1
    18     2     3    1
    19     3     4    1
    20     4    24    1
    21    24    25    1
    22    24    26    1
    23    26    27    1
    24    27    28    1
    25    28    29   am
    26    29    30    2
    27    29    33    1
    28    33    34   ar
    29    34    35    1
    30    34    36   ar
    31    36    37   ar
    32    37    38   ar
    33    38    39   ar
    34    39    40    1
    35    28    31    1
    36    31    32    1
    37     4     5    1
    38     5     6    1
    39     6     7    1
    40    16     8    1
    41     6     1    1
    42    15    10   ar
    43    32    24    1
    44    39    33   ar
@<TRIPOS>MOLECULE
*****
 40 44 0 0 0
SMALL
GASTEIGER

@<TRIPOS>ATOM
      1 N         139.6558  141.5706  163.0094 N.3     1  UNL1       -0.2671
      2 C         138.6302  142.5201  162.4650 C.3     1  UNL1        0.0899
      3 C         138.9666  143.3985  161.2966 C.3     1  UNL1        0.0896
      4 N         140.3288  143.3274  160.6725 N.3     1  UNL1       -0.2728
      5 C         141.3545  142.3778  161.2168 C.3     1  UNL1        0.0882
      6 C         141.0180  141.4994  162.3852 C.3     1  UNL1        0.0739
      7 C         142.0437  140.5499  162.9296 C.3     1  UNL1        0.0188
      8 C         138.6046  139.3750  164.1136 C.3     1  UNL1        0.1382
      9 C         138.4821  138.8455  165.5117 C.3     1  UNL1        0.0573
     10 C         139.1212  139.8355  166.4399 C.ar    1  UNL1       -0.0224
     11 C         139.2988  139.8451  167.9293 C.ar    1  UNL1       -0.0006
     12 C         139.9939  140.9960  168.5943 C.ar    1  UNL1        0.0711
     13 C         140.5114  142.1373  167.7699 C.ar    1  UNL1        0.0036
     14 C         140.3337  142.1277  166.2805 C.ar    1  UNL1       -0.0033
     15 C         139.6387  140.9768  165.6155 C.ar    1  UNL1       -0.0093
     16 C         139.3194  140.6922  164.1778 C.3     1  UNL1        0.1077
     17 C         140.1716  141.0057  170.0837 C.3     1  UNL1        0.4186
     18 F         140.3492  141.0153  171.5731 F       1  UNL1       -0.1659
     19 F         138.7262  140.6445  170.2584 F       1  UNL1       -0.1659
     20 F         141.6169  141.3668  169.9091 F       1  UNL1       -0.1659
     21 O         138.1007  138.7049  162.8698 O.3     1  UNL1       -0.3542
     22 C         138.9376  139.0335  160.4322 C.3     1  UNL1        0.0346
     23 C         139.0550  138.3573  161.7660 C.3     1  UNL1        0.1422
     24 C         140.6652  144.2058  159.5040 C.3     1  UNL1        0.0488
     25 C         141.6286  144.7436  160.5202 C.3     1  UNL1        0.0161
     26 C         139.5849  143.3629  158.8937 C.3     1  UNL1        0.0362
     27 C         139.1756  143.5851  157.4679 C.3     1  UNL1        0.0951
     28 N         139.8466  144.6503  156.6523 N.am    1  UNL1       -0.2759
     29 C         139.4374  144.8726  155.2265 C.2     1  UNL1        0.2513
     30 O         138.3570  144.0297  154.6161 O.2     1  UNL1       -0.2698
     31 C         140.9269  145.4932  157.2627 C.3     1  UNL1        0.0951
     32 C         141.3362  145.2709  158.6884 C.3     1  UNL1        0.0362
     33 C         140.1084  145.9378  154.4109 C.ar    1  UNL1        0.0807
     34 C         141.2088  145.5721  153.4594 C.ar    1  UNL1        0.0666
     35 C         141.6383  144.1413  153.3236 C.3     1  UNL1        0.0523
     36 N         141.8799  146.6372  152.6438 N.ar    1  UNL1       -0.2282
     37 C         141.4504  148.0680  152.7796 C.ar    1  UNL1        0.1982
     38 N         140.3500  148.4337  153.7311 N.ar    1  UNL1       -0.2282
     39 C         139.6789  147.3686  154.5467 C.ar    1  UNL1        0.0666
     40 C         138.5785  147.7342  155.4982 C.3     1  UNL1        0.0523
@<TRIPOS>BOND
     1    22    23    1
     2    23    21    1
     3     8    21    1
     4     8     9    1
     5     9    10    1
     6    10    11   ar
     7    11    12   ar
     8    12    17    1
     9    17    18    1
    10    17    19    1
    11    17    20    1
    12    12    13   ar
    13    13    14   ar
    14    14    15   ar
    15    15    16    1
    16    16     1    1
    17     1     2    1
    18     2     3    1
    19     3     4    1
    20     4    24    1
    21    24    25    1
    22    24    26    1
    23    26    27    1
    24    27    28    1
    25    28    29   am
    26    29    30    2
    27    29    33    1
    28    33    34   ar
    29    34    35    1
    30    34    36   ar
    31    36    37   ar
    32    37    38   ar
    33    38    39   ar
    34    39    40    1
    35    28    31    1
    36    31    32    1
    37     4     5    1
    38     5     6    1
    39     6     7    1
    40    16     8    1
    41     6     1    1
    42    15    10   ar
    43    32    24    1
    44    39    33   ar
@<TRIPOS>MOLECULE
*****
 40 44 0 0 0
SMALL
GASTEIGER

@<TRIPOS>ATOM
      1 N         143.5007  141.1557  159.3715 N.3     1  UNL1       -0.2671
      2 C         143.7592  140.1911  160.4907 C.3     1  UNL1        0.0899
      3 C         143.2800  140.5048  161.8770 C.3     1  UNL1        0.0896
      4 N         142.5422  141.7832  162.1442 N.3     1  UNL1       -0.2728
      5 C         142.2837  142.7479  161.0251 C.3     1  UNL1        0.0882
      6 C         142.7628  142.4342  159.6387 C.3     1  UNL1        0.0739
      7 C         142.5043  143.3989  158.5196 C.3     1  UNL1        0.0188
      8 C         143.3282  139.8968  157.0199 C.3     1  UNL1        0.1382
      9 C         144.1405  139.8891  155.7588 C.3     1  UNL1        0.0573
     10 C         145.2941  140.8296  155.9448 C.ar    1  UNL1       -0.0224
     11 C         146.4221  141.2258  155.0390 C.ar    1  UNL1       -0.0006
     12 C         147.4509  142.2110  155.5091 C.ar    1  UNL1        0.0711
     13 C         147.3516  142.7999  156.8851 C.ar    1  UNL1        0.0036
     14 C         146.2236  142.4037  157.7909 C.ar    1  UNL1       -0.0033
     15 C         145.1948  141.4186  157.3208 C.ar    1  UNL1       -0.0093
     16 C         143.9799  140.8421  157.9852 C.3     1  UNL1        0.1077
     17 C         148.5790  142.6073  154.6033 C.3     1  UNL1        0.4186
     18 F         149.7070  143.0035  153.6975 F       1  UNL1       -0.1659
     19 F         147.6178  143.3685  153.7393 F       1  UNL1       -0.1659
     20 F         149.5402  141.8460  155.4673 F       1  UNL1       -0.1659
     21 O         142.0830  139.0993  157.2714 O.3     1  UNL1       -0.3542
     22 C         142.8679  136.6235  157.2057 C.3     1  UNL1        0.0346
     23 C         142.1751  137.7482  157.9164 C.3     1  UNL1        0.1422
     24 C         142.0630  142.0969  163.5306 C.3     1  UNL1        0.0488
     25 C         141.4750  143.2568  162.7830 C.3     1  UNL1        0.0161
     26 C         142.8175  140.8281  163.7966 C.3     1  UNL1        0.0362
     27 C         142.8887  140.2757  165.1894 C.3     1  UNL1        0.0951
     28 N         142.2053  140.9921  166.3162 N.am    1  UNL1       -0.2759
     29 C         142.2763  140.4398  167.7089 C.2     1  UNL1        0.2513
     30 O         143.0309  139.1710  167.9750 O.2     1  UNL1       -0.2698
     31 C         141.4507  142.2610  166.0501 C.3     1  UNL1        0.0951
     32 C         141.3796  142.8133  164.6574 C.3     1  UNL1        0.0362
     33 C         141.5929  141.1563  168.8357 C.ar    1  UNL1        0.0807
     34 C         140.1402  140.9056  169.1124 C.ar    1  UNL1        0.0666
     35 C         139.3708  139.9383  168.2623 C.3     1  UNL1        0.0523
     36 N         139.4567  141.6220  170.2392 N.ar    1  UNL1       -0.2282
     37 C         140.2260  142.5892  171.0893 C.ar    1  UNL1        0.1982
     38 N         141.6788  142.8399  170.8126 N.ar    1  UNL1       -0.2282
     39 C         142.3623  142.1235  169.6859 C.ar    1  UNL1        0.0666
     40 C         143.8150  142.3743  169.4092 C.3     1  UNL1        0.0523
@<TRIPOS>BOND
     1    22    23    1
     2    23    21    1
     3     8    21    1
     4     8     9    1
     5     9    10    1
     6    10    11   ar
     7    11    12   ar
     8    12    17    1
     9    17    18    1
    10    17    19    1
    11    17    20    1
    12    12    13   ar
    13    13    14   ar
    14    14    15   ar
    15    15    16    1
    16    16     1    1
    17     1     2    1
    18     2     3    1
    19     3     4    1
    20     4    24    1
    21    24    25    1
    22    24    26    1
    23    26    27    1
    24    27    28    1
    25    28    29   am
    26    29    30    2
    27    29    33    1
    28    33    34   ar
    29    34    35    1
    30    34    36   ar
    31    36    37   ar
    32    37    38   ar
    33    38    39   ar
    34    39    40    1
    35    28    31    1
    36    31    32    1
    37     4     5    1
    38     5     6    1
    39     6     7    1
    40    16     8    1
    41     6     1    1
    42    15    10   ar
    43    32    24    1
    44    39    33   ar
@<TRIPOS>MOLECULE
*****
 40 44 0 0 0
SMALL
GASTEIGER

@<TRIPOS>ATOM
      1 N         143.0518  140.4192  159.3730 N.3     1  UNL1       -0.2671
      2 C         143.9924  140.2780  160.5327 C.3     1  UNL1        0.0899
      3 C         143.5539  140.6855  161.9081 C.3     1  UNL1        0.0896
      4 N         142.1747  141.2342  162.1238 N.3     1  UNL1       -0.2728
      5 C         141.2339  141.3755  160.9640 C.3     1  UNL1        0.0882
      6 C         141.6724  140.9680  159.5886 C.3     1  UNL1        0.0739
      7 C         140.7317  141.1093  158.4289 C.3     1  UNL1        0.0188
      8 C         144.2495  140.8651  157.0253 C.3     1  UNL1        0.1382
      9 C         144.4750  140.0601  155.7799 C.3     1  UNL1        0.0573
     10 C         143.8551  138.7093  155.9824 C.ar    1  UNL1       -0.0224
     11 C         143.7661  137.5026  155.0959 C.ar    1  UNL1       -0.0006
     12 C         143.0686  136.2661  155.5800 C.ar    1  UNL1        0.0711
     13 C         142.4600  136.2362  156.9506 C.ar    1  UNL1        0.0036
     14 C         142.5489  137.4429  157.8372 C.ar    1  UNL1       -0.0033
     15 C         143.2465  138.6794  157.3531 C.ar    1  UNL1       -0.0093
     16 C         143.4903  140.0118  157.9976 C.3     1  UNL1        0.1077
     17 C         142.9796  135.0594  154.6934 C.3     1  UNL1        0.4186
     18 F         142.8906  133.8527  153.8068 F       1  UNL1       -0.1659
     19 F         142.5297  135.9280  153.5563 F       1  UNL1       -0.1659
     20 F         143.4296  134.1907  155.8305 F       1  UNL1       -0.1659
     21 O         144.7036  142.2757  157.2577 O.3     1  UNL1       -0.3542
     22 C         147.1598  142.5625  156.4609 C.3     1  UNL1        0.0346
     23 C         146.1442  142.5589  157.5648 C.3     1  UNL1        0.1422
     24 C         141.7362  141.6417  163.4991 C.3     1  UNL1        0.0488
     25 C         141.0922  142.7269  162.6882 C.3     1  UNL1        0.0161
     26 C         142.5324  140.4150  163.8324 C.3     1  UNL1        0.0362
     27 C         142.6666  139.9725  165.2593 C.3     1  UNL1        0.0951
     28 N         142.0045  140.7569  166.3531 N.am    1  UNL1       -0.2759
     29 C         142.1386  140.3145  167.7801 C.2     1  UNL1        0.2513
     30 O         142.9349  139.0877  168.1133 O.2     1  UNL1       -0.2698
     31 C         141.2082  141.9836  166.0199 C.3     1  UNL1        0.0951
     32 C         141.0740  142.4260  164.5930 C.3     1  UNL1        0.0362
     33 C         141.4765  141.0988  168.8739 C.ar    1  UNL1        0.0807
     34 C         142.2657  142.1038  169.6595 C.ar    1  UNL1        0.0666
     35 C         143.7171  142.3243  169.3513 C.3     1  UNL1        0.0523
     36 N         141.6036  142.8881  170.7534 N.ar    1  UNL1       -0.2282
     37 C         140.1523  142.6675  171.0616 C.ar    1  UNL1        0.1982
     38 N         139.3630  141.6626  170.2759 N.ar    1  UNL1       -0.2282
     39 C         140.0251  140.8783  169.1821 C.ar    1  UNL1        0.0666
     40 C         139.2359  139.8734  168.3965 C.3     1  UNL1        0.0523
@<TRIPOS>BOND
     1    22    23    1
     2    23    21    1
     3     8    21    1
     4     8     9    1
     5     9    10    1
     6    10    11   ar
     7    11    12   ar
     8    12    17    1
     9    17    18    1
    10    17    19    1
    11    17    20    1
    12    12    13   ar
    13    13    14   ar
    14    14    15   ar
    15    15    16    1
    16    16     1    1
    17     1     2    1
    18     2     3    1
    19     3     4    1
    20     4    24    1
    21    24    25    1
    22    24    26    1
    23    26    27    1
    24    27    28    1
    25    28    29   am
    26    29    30    2
    27    29    33    1
    28    33    34   ar
    29    34    35    1
    30    34    36   ar
    31    36    37   ar
    32    37    38   ar
    33    38    39   ar
    34    39    40    1
    35    28    31    1
    36    31    32    1
    37     4     5    1
    38     5     6    1
    39     6     7    1
    40    16     8    1
    41     6     1    1
    42    15    10   ar
    43    32    24    1
    44    39    33   ar
@<TRIPOS>MOLECULE
*****
 40 44 0 0 0
SMALL
GASTEIGER

@<TRIPOS>ATOM
      1 N         140.7331  143.7071  159.4155 N.3     1  UNL1       -0.2671
      2 C         141.8006  144.2845  160.2969 C.3     1  UNL1        0.0899
      3 C         141.6772  144.1844  161.7885 C.3     1  UNL1        0.0896
      4 N         140.4862  143.5068  162.3987 N.3     1  UNL1       -0.2728
      5 C         139.4186  142.9293  161.5174 C.3     1  UNL1        0.0882
      6 C         139.5420  143.0294  160.0258 C.3     1  UNL1        0.0739
      7 C         138.4744  142.4519  159.1445 C.3     1  UNL1        0.0188
      8 C         141.3350  142.7233  157.0041 C.3     1  UNL1        0.1382
      9 C         141.2973  143.2551  155.6021 C.3     1  UNL1        0.0573
     10 C         140.7953  144.6676  155.6554 C.ar    1  UNL1       -0.0224
     11 C         140.5512  145.6872  154.5826 C.ar    1  UNL1       -0.0006
     12 C         140.0346  147.0480  154.9449 C.ar    1  UNL1        0.0711
     13 C         139.7622  147.3892  156.3800 C.ar    1  UNL1        0.0036
     14 C         140.0063  146.3696  157.4527 C.ar    1  UNL1       -0.0033
     15 C         140.5229  145.0088  157.0904 C.ar    1  UNL1       -0.0093
     16 C         140.8565  143.8072  157.9240 C.3     1  UNL1        0.1077
     17 C         139.7904  148.0676  153.8722 C.3     1  UNL1        0.4186
     18 F         139.5463  149.0872  152.7994 F       1  UNL1       -0.1659
     19 F         140.7086  147.3193  152.9519 F       1  UNL1       -0.1659
     20 F         138.8722  148.8160  154.7924 F       1  UNL1       -0.1659
     21 O         141.7743  141.3490  157.4143 O.3     1  UNL1       -0.3542
     22 C         142.5751  140.5280  159.7456 C.3     1  UNL1        0.0346
     23 C         142.8674  141.1822  158.4278 C.3     1  UNL1        0.1422
     24 C         140.3629  143.4066  163.8903 C.3     1  UNL1        0.0488
     25 C         139.4883  144.5985  163.6360 C.3     1  UNL1        0.0161
     26 C         141.2803  142.2496  163.6265 C.3     1  UNL1        0.0362
     27 C         141.7706  141.4063  164.7659 C.3     1  UNL1        0.0951
     28 N         141.3435  141.7200  166.1692 N.am    1  UNL1       -0.2759
     29 C         141.8338  140.8768  167.3087 C.2     1  UNL1        0.2513
     30 O         142.7513  139.7197  167.0450 O.2     1  UNL1       -0.2698
     31 C         140.4261  142.8771  166.4330 C.3     1  UNL1        0.0951
     32 C         139.9358  143.7204  165.2936 C.3     1  UNL1        0.0362
     33 C         141.4067  141.1905  168.7120 C.ar    1  UNL1        0.0807
     34 C         142.3028  141.9948  169.6065 C.ar    1  UNL1        0.0666
     35 C         143.6259  142.4853  169.0978 C.3     1  UNL1        0.0523
     36 N         141.8758  142.3086  171.0098 N.ar    1  UNL1       -0.2282
     37 C         140.5527  141.8180  171.5186 C.ar    1  UNL1        0.1982
     38 N         139.6566  141.0138  170.6241 N.ar    1  UNL1       -0.2282
     39 C         140.0836  140.7000  169.2208 C.ar    1  UNL1        0.0666
     40 C         139.1876  139.8957  168.3262 C.3     1  UNL1        0.0523
@<TRIPOS>BOND
     1    22    23    1
     2    23    21    1
     3     8    21    1
     4     8     9    1
     5     9    10    1
     6    10    11   ar
     7    11    12   ar
     8    12    17    1
     9    17    18    1
    10    17    19    1
    11    17    20    1
    12    12    13   ar
    13    13    14   ar
    14    14    15   ar
    15    15    16    1
    16    16     1    1
    17     1     2    1
    18     2     3    1
    19     3     4    1
    20     4    24    1
    21    24    25    1
    22    24    26    1
    23    26    27    1
    24    27    28    1
    25    28    29   am
    26    29    30    2
    27    29    33    1
    28    33    34   ar
    29    34    35    1
    30    34    36   ar
    31    36    37   ar
    32    37    38   ar
    33    38    39   ar
    34    39    40    1
    35    28    31    1
    36    31    32    1
    37     4     5    1
    38     5     6    1
    39     6     7    1
    40    16     8    1
    41     6     1    1
    42    15    10   ar
    43    32    24    1
    44    39    33   ar
