@<TRIPOS>MOLECULE
*****
 41 43 0 0 0
SMALL
GASTEIGER

@<TRIPOS>ATOM
      1 C         143.1978  141.4445  158.8602 C.2     1  UNL1        0.2485
      2 O         143.8480  141.2522  160.1982 O.2     1  UNL1       -0.2726
      3 N         141.8875  142.1678  158.7602 N.am    1  UNL1       -0.2823
      4 H         141.4608  142.2940  157.8820 H       1  UNL1        0.1549
      5 C         147.6315  141.9218  155.4322 C.ar    1  UNL1        0.1054
      6 C         147.3498  142.7303  156.6638 C.ar    1  UNL1        0.0181
      7 C         146.1099  142.4675  157.4662 C.ar    1  UNL1       -0.0011
      8 C         145.1518  141.3962  157.0369 C.ar    1  UNL1        0.0022
      9 C         145.4335  140.5877  155.8053 C.ar    1  UNL1       -0.0030
     10 C         146.6733  140.8505  155.0030 C.ar    1  UNL1        0.0155
     11 C         144.3136  139.6053  155.6295 C.3     1  UNL1        0.1206
     12 N         143.3398  139.8067  156.7525 N.am    1  UNL1       -0.2654
     13 C         142.0708  139.0364  156.9679 C.2     1  UNL1        0.2275
     14 O         141.1924  139.3515  158.1422 O.2     1  UNL1       -0.2748
     15 C         143.8579  140.9135  157.6223 C.3     1  UNL1        0.1750
     16 S         148.8713  142.1845  154.6299 S.O2    1  UNL1        0.0086
     17 O         149.7136  141.7029  155.7738 O.2     1  UNL1       -0.1686
     18 O         148.0290  142.6662  153.4860 O.2     1  UNL1       -0.1686
     19 C         151.4619  142.2113  154.4354 C.3     1  UNL1        0.0276
     20 C         150.1111  142.4473  153.8275 C.3     1  UNL1        0.1560
     21 C         141.6802  137.9511  156.0090 C.3     1  UNL1        0.1014
     22 C         140.5882  136.9884  156.3702 C.3     1  UNL1        0.1150
     23 C         139.2266  137.1346  155.7579 C.1     1  UNL1        0.0737
     24 N         137.8651  137.2808  155.1456 N.1     1  UNL1       -0.1959
     25 C         141.2275  142.6987  159.9981 C.ar    1  UNL1        0.0503
     26 C         141.2860  144.1649  160.3092 C.ar    1  UNL1        0.0144
     27 C         140.6260  144.6959  161.5471 C.ar    1  UNL1       -0.0002
     28 C         139.9074  143.7607  162.4740 C.ar    1  UNL1        0.0182
     29 C         139.8489  142.2945  162.1629 C.ar    1  UNL1       -0.0002
     30 C         140.5090  141.7635  160.9249 C.ar    1  UNL1        0.0144
     31 C         139.2474  144.2917  163.7119 C.3     1  UNL1        0.2827
     32 O         138.1127  144.8153  162.8823 O.3     1  UNL1       -0.3692
     33 H         138.2705  144.6045  161.9487 H       1  UNL1        0.2112
     34 C         138.5874  144.8226  164.9498 C.3     1  UNL1        0.4311
     35 F         137.9273  145.3536  166.1877 F       1  UNL1       -0.1669
     36 F         137.4285  143.8962  164.7293 F       1  UNL1       -0.1669
     37 F         139.2191  145.4038  165.1681 F       1  UNL1       -0.1669
     38 C         140.3821  143.7680  164.5415 C.3     1  UNL1        0.4311
     39 F         141.5168  143.2444  165.3711 F       1  UNL1       -0.1669
     40 F         140.9953  144.3419  164.2602 F       1  UNL1       -0.1669
     41 F         139.7767  142.6288  165.3067 F       1  UNL1       -0.1669
@<TRIPOS>BOND
     1    19    20    1
     2    20    16    1
     3    16    17    2
     4    16    18    2
     5    16     5    1
     6     5     6   ar
     7     6     7   ar
     8     7     8   ar
     9     8     9   ar
    10     9    10   ar
    11     9    11    1
    12    11    12    1
    13    12    13   am
    14    13    14    2
    15    13    21    1
    16    21    22    1
    17    22    23    1
    18    23    24    3
    19    12    15    1
    20    15     1    1
    21     1     2    2
    22     1     3   am
    23     3    25    1
    24    25    26   ar
    25    26    27   ar
    26    27    28   ar
    27    28    31    1
    28    31    32    1
    29    31    34    1
    30    34    35    1
    31    34    36    1
    32    34    37    1
    33    31    38    1
    34    38    39    1
    35    38    40    1
    36    38    41    1
    37    28    29   ar
    38    29    30   ar
    39    10     5   ar
    40    30    25   ar
    41    15     8    1
    42     3     4    1
    43    32    33    1
@<TRIPOS>MOLECULE
*****
 41 43 0 0 0
SMALL
GASTEIGER

@<TRIPOS>ATOM
      1 C         139.3089  139.9635  157.7620 C.2     1  UNL1        0.2485
      2 O         140.5557  140.7291  158.0928 O.2     1  UNL1       -0.2726
      3 N         138.1022  140.0775  158.6457 N.am    1  UNL1       -0.2823
      4 H         137.2839  139.5750  158.4286 H       1  UNL1        0.1549
      5 C         141.5332  135.4375  155.2711 C.ar    1  UNL1        0.1054
      6 C         141.9091  136.0118  156.6049 C.ar    1  UNL1        0.0181
      7 C         141.2074  137.2333  157.1202 C.ar    1  UNL1       -0.0011
      8 C         140.1297  137.8805  156.3019 C.ar    1  UNL1        0.0022
      9 C         139.7538  137.3062  154.9681 C.ar    1  UNL1       -0.0030
     10 C         140.4556  136.0847  154.4528 C.ar    1  UNL1        0.0155
     11 C         138.6605  138.1548  154.3895 C.3     1  UNL1        0.1206
     12 N         138.3608  139.2535  155.3657 N.am    1  UNL1       -0.2654
     13 C         137.3335  140.3325  155.1908 C.2     1  UNL1        0.2275
     14 O         137.1454  141.3692  156.2583 O.2     1  UNL1       -0.2748
     15 C         139.2689  139.0840  156.5476 C.3     1  UNL1        0.1750
     16 S         142.2349  134.2161  154.7558 S.O2    1  UNL1        0.0086
     17 O         142.2535  134.8082  153.3777 O.2     1  UNL1       -0.1686
     18 O         142.2163  133.6240  156.1339 O.2     1  UNL1       -0.1686
     19 C         142.3794  132.2499  153.0637 C.3     1  UNL1        0.0276
     20 C         142.9367  132.9946  154.2404 C.3     1  UNL1        0.1560
     21 C         136.4942  140.3746  153.9482 C.3     1  UNL1        0.1014
     22 C         135.0006  140.2798  154.0485 C.3     1  UNL1        0.1150
     23 C         134.3694  139.6082  155.2319 C.1     1  UNL1        0.0737
     24 N         133.7382  138.9366  156.4154 N.1     1  UNL1       -0.1959
     25 C         138.1423  140.9571  159.8601 C.ar    1  UNL1        0.0503
     26 C         137.6674  140.4320  161.1824 C.ar    1  UNL1        0.0144
     27 C         137.7075  141.3115  162.3968 C.ar    1  UNL1       -0.0002
     28 C         138.2225  142.7162  162.2889 C.ar    1  UNL1        0.0182
     29 C         138.6974  143.2413  160.9665 C.ar    1  UNL1       -0.0002
     30 C         138.6573  142.3617  159.7522 C.ar    1  UNL1        0.0144
     31 C         138.2626  143.5957  163.5033 C.3     1  UNL1        0.2827
     32 O         137.3687  144.5851  162.8163 O.3     1  UNL1       -0.3692
     33 H         137.1516  144.2621  161.9278 H       1  UNL1        0.2112
     34 C         138.3027  144.4752  164.7177 C.3     1  UNL1        0.4311
     35 F         138.3428  145.3548  165.9321 F       1  UNL1       -0.1669
     36 F         139.6037  145.0587  164.2522 F       1  UNL1       -0.1669
     37 F         137.5430  144.1966  165.0780 F       1  UNL1       -0.1669
     38 C         139.1565  142.6063  164.1904 C.3     1  UNL1        0.4311
     39 F         140.0504  141.6169  164.8775 F       1  UNL1       -0.1669
     40 F         139.8954  142.7983  163.7413 F       1  UNL1       -0.1669
     41 F         138.2560  141.9311  165.1820 F       1  UNL1       -0.1669
@<TRIPOS>BOND
     1    19    20    1
     2    20    16    1
     3    16    17    2
     4    16    18    2
     5    16     5    1
     6     5     6   ar
     7     6     7   ar
     8     7     8   ar
     9     8     9   ar
    10     9    10   ar
    11     9    11    1
    12    11    12    1
    13    12    13   am
    14    13    14    2
    15    13    21    1
    16    21    22    1
    17    22    23    1
    18    23    24    3
    19    12    15    1
    20    15     1    1
    21     1     2    2
    22     1     3   am
    23     3    25    1
    24    25    26   ar
    25    26    27   ar
    26    27    28   ar
    27    28    31    1
    28    31    32    1
    29    31    34    1
    30    34    35    1
    31    34    36    1
    32    34    37    1
    33    31    38    1
    34    38    39    1
    35    38    40    1
    36    38    41    1
    37    28    29   ar
    38    29    30   ar
    39    10     5   ar
    40    30    25   ar
    41    15     8    1
    42     3     4    1
    43    32    33    1
@<TRIPOS>MOLECULE
*****
 41 43 0 0 0
SMALL
GASTEIGER

@<TRIPOS>ATOM
      1 C         141.4538  139.5417  159.0466 C.2     1  UNL1        0.2485
      2 O         140.7978  140.8214  159.4731 O.2     1  UNL1       -0.2726
      3 N         141.4419  138.3521  159.9602 N.am    1  UNL1       -0.2823
      4 H         141.8724  137.5121  159.6803 H       1  UNL1        0.1549
      5 C         145.8278  141.2493  155.9501 C.ar    1  UNL1        0.1054
      6 C         145.5267  141.6207  157.3719 C.ar    1  UNL1        0.0181
      7 C         144.3071  141.0692  158.0489 C.ar    1  UNL1       -0.0011
      8 C         143.3886  140.1463  157.3043 C.ar    1  UNL1        0.0022
      9 C         143.6897  139.7749  155.8825 C.ar    1  UNL1       -0.0030
     10 C         144.9093  140.3264  155.2054 C.ar    1  UNL1        0.0155
     11 C         142.6087  138.8506  155.4060 C.3     1  UNL1        0.1206
     12 N         141.6395  138.6507  156.5332 N.am    1  UNL1       -0.2654
     13 C         140.4050  137.7994  156.4942 C.2     1  UNL1        0.2275
     14 O         139.5271  137.6955  157.7060 O.2     1  UNL1       -0.2748
     15 C         142.1216  139.4515  157.7064 C.3     1  UNL1        0.1750
     16 S         147.0474  141.8008  155.2730 S.O2    1  UNL1        0.0086
     17 O         147.4783  142.4324  156.5636 O.2     1  UNL1       -0.1686
     18 O         146.6165  141.1692  153.9825 O.2     1  UNL1       -0.1686
     19 C         149.6210  141.7924  154.9173 C.3     1  UNL1        0.0276
     20 C         148.2670  142.3523  154.5960 C.3     1  UNL1        0.1560
     21 C         140.0485  137.0522  155.2434 C.3     1  UNL1        0.1014
     22 C         140.7234  135.7499  154.9296 C.3     1  UNL1        0.1150
     23 C         141.7842  135.2151  155.8455 C.1     1  UNL1        0.0737
     24 N         142.8449  134.6803  156.7614 N.1     1  UNL1       -0.1959
     25 C         140.7742  138.4422  161.3003 C.ar    1  UNL1        0.0503
     26 C         141.5553  138.8938  162.4986 C.ar    1  UNL1        0.0144
     27 C         140.8875  138.9839  163.8388 C.ar    1  UNL1       -0.0002
     28 C         139.4386  138.6226  163.9806 C.ar    1  UNL1        0.0182
     29 C         138.6575  138.1711  162.7823 C.ar    1  UNL1       -0.0002
     30 C         139.3253  138.0809  161.4422 C.ar    1  UNL1        0.0144
     31 C         138.7708  138.7128  165.3208 C.3     1  UNL1        0.2827
     32 O         139.0195  137.2503  165.5431 O.3     1  UNL1       -0.3692
     33 H         139.4802  136.8801  164.7739 H       1  UNL1        0.2112
     34 C         138.1031  138.8029  166.6609 C.3     1  UNL1        0.4311
     35 F         137.4353  138.8931  168.0010 F       1  UNL1       -0.1669
     36 F         139.3876  139.2833  167.2686 F       1  UNL1       -0.1669
     37 F         137.3022  138.5279  166.4011 F       1  UNL1       -0.1669
     38 C         138.5222  140.1752  165.0984 C.3     1  UNL1        0.4311
     39 F         138.2735  141.6376  164.8761 F       1  UNL1       -0.1669
     40 F         137.7182  140.0941  164.7356 F       1  UNL1       -0.1669
     41 F         139.7633  140.8376  165.6189 F       1  UNL1       -0.1669
@<TRIPOS>BOND
     1    19    20    1
     2    20    16    1
     3    16    17    2
     4    16    18    2
     5    16     5    1
     6     5     6   ar
     7     6     7   ar
     8     7     8   ar
     9     8     9   ar
    10     9    10   ar
    11     9    11    1
    12    11    12    1
    13    12    13   am
    14    13    14    2
    15    13    21    1
    16    21    22    1
    17    22    23    1
    18    23    24    3
    19    12    15    1
    20    15     1    1
    21     1     2    2
    22     1     3   am
    23     3    25    1
    24    25    26   ar
    25    26    27   ar
    26    27    28   ar
    27    28    31    1
    28    31    32    1
    29    31    34    1
    30    34    35    1
    31    34    36    1
    32    34    37    1
    33    31    38    1
    34    38    39    1
    35    38    40    1
    36    38    41    1
    37    28    29   ar
    38    29    30   ar
    39    10     5   ar
    40    30    25   ar
    41    15     8    1
    42     3     4    1
    43    32    33    1
@<TRIPOS>MOLECULE
*****
 41 43 0 0 0
SMALL
GASTEIGER

@<TRIPOS>ATOM
      1 C         141.5008  140.2950  161.7867 C.2     1  UNL1        0.2485
      2 O         140.2567  139.4705  161.6377 O.2     1  UNL1       -0.2726
      3 N         142.5792  140.2200  160.7468 N.am    1  UNL1       -0.2823
      4 H         143.3958  140.7612  160.8445 H       1  UNL1        0.1549
      5 C         142.2974  140.4831  167.3514 C.ar    1  UNL1        0.1054
      6 C         142.1811  139.2566  166.4957 C.ar    1  UNL1        0.0181
      7 C         141.9684  139.3913  165.0170 C.ar    1  UNL1       -0.0011
      8 C         141.8721  140.7523  164.3939 C.ar    1  UNL1        0.0022
      9 C         141.9885  141.9787  165.2497 C.ar    1  UNL1       -0.0030
     10 C         142.2011  141.8441  166.7284 C.ar    1  UNL1        0.0155
     11 C         141.8548  143.1791  164.3600 C.3     1  UNL1        0.1206
     12 N         141.6558  142.6945  162.9545 N.am    1  UNL1       -0.2654
     13 C         141.4775  143.5580  161.7410 C.2     1  UNL1        0.2275
     14 O         141.2876  142.9276  160.3932 O.2     1  UNL1       -0.2748
     15 C         141.6666  141.1946  162.9755 C.3     1  UNL1        0.1750
     16 S         142.5100  140.3484  168.8302 S.O2    1  UNL1        0.0086
     17 O         143.0747  138.9742  168.6238 O.2     1  UNL1       -0.1686
     18 O         141.9453  141.7227  169.0365 O.2     1  UNL1       -0.1686
     19 C         141.8947  141.0233  171.2624 C.3     1  UNL1        0.0276
     20 C         142.7226  140.2138  170.3089 C.3     1  UNL1        0.1560
     21 C         141.4890  145.0520  161.8753 C.3     1  UNL1        0.1014
     22 C         140.2062  145.7941  162.1065 C.3     1  UNL1        0.1150
     23 C         138.9551  145.0408  162.4489 C.1     1  UNL1        0.0737
     24 N         137.7040  144.2876  162.7913 N.1     1  UNL1       -0.1959
     25 C         142.4135  139.3204  159.5580 C.ar    1  UNL1        0.0503
     26 C         141.7239  139.8257  158.3254 C.ar    1  UNL1        0.0144
     27 C         141.5581  138.9261  157.1366 C.ar    1  UNL1       -0.0002
     28 C         142.0820  137.5212  157.1803 C.ar    1  UNL1        0.0182
     29 C         142.7716  137.0160  158.4128 C.ar    1  UNL1       -0.0002
     30 C         142.9373  137.9155  159.6016 C.ar    1  UNL1        0.0144
     31 C         141.9162  136.6216  155.9915 C.3     1  UNL1        0.2827
     32 O         140.4494  136.5065  156.2831 O.3     1  UNL1       -0.3692
     33 H         140.2342  137.0301  157.0708 H       1  UNL1        0.2112
     34 C         141.7505  135.7220  154.8027 C.3     1  UNL1        0.4311
     35 F         141.5847  134.8225  153.6139 F       1  UNL1       -0.1669
     36 F         141.3391  134.6000  155.7092 F       1  UNL1       -0.1669
     37 F         141.9796  136.3150  154.1859 F       1  UNL1       -0.1669
     38 C         143.3831  136.7368  155.6999 C.3     1  UNL1        0.4311
     39 F         144.8499  136.8519  155.4082 F       1  UNL1       -0.1669
     40 F         143.3733  137.5798  155.4281 F       1  UNL1       -0.1669
     41 F         143.9290  135.3828  156.0444 F       1  UNL1       -0.1669
@<TRIPOS>BOND
     1    19    20    1
     2    20    16    1
     3    16    17    2
     4    16    18    2
     5    16     5    1
     6     5     6   ar
     7     6     7   ar
     8     7     8   ar
     9     8     9   ar
    10     9    10   ar
    11     9    11    1
    12    11    12    1
    13    12    13   am
    14    13    14    2
    15    13    21    1
    16    21    22    1
    17    22    23    1
    18    23    24    3
    19    12    15    1
    20    15     1    1
    21     1     2    2
    22     1     3   am
    23     3    25    1
    24    25    26   ar
    25    26    27   ar
    26    27    28   ar
    27    28    31    1
    28    31    32    1
    29    31    34    1
    30    34    35    1
    31    34    36    1
    32    34    37    1
    33    31    38    1
    34    38    39    1
    35    38    40    1
    36    38    41    1
    37    28    29   ar
    38    29    30   ar
    39    10     5   ar
    40    30    25   ar
    41    15     8    1
    42     3     4    1
    43    32    33    1
@<TRIPOS>MOLECULE
*****
 41 43 0 0 0
SMALL
GASTEIGER

@<TRIPOS>ATOM
      1 C         143.7423  140.2331  158.7723 C.2     1  UNL1        0.2485
      2 O         142.9206  141.4318  159.1435 O.2     1  UNL1       -0.2726
      3 N         144.1004  139.2170  159.8160 N.am    1  UNL1       -0.2823
      4 H         144.6397  138.4302  159.5724 H       1  UNL1        0.1549
      5 C         147.0880  142.2400  154.7208 C.ar    1  UNL1        0.1054
      6 C         146.9235  142.7833  156.1092 C.ar    1  UNL1        0.0181
      7 C         145.9805  142.1186  157.0679 C.ar    1  UNL1       -0.0011
      8 C         145.2020  140.9107  156.6381 C.ar    1  UNL1        0.0022
      9 C         145.3665  140.3674  155.2497 C.ar    1  UNL1       -0.0030
     10 C         146.3095  141.0320  154.2911 C.ar    1  UNL1        0.0155
     11 C         144.4720  139.1713  155.1110 C.3     1  UNL1        0.1206
     12 N         143.7547  138.9754  156.4137 N.am    1  UNL1       -0.2654
     13 C         142.7607  137.8942  156.7190 C.2     1  UNL1        0.2275
     14 O         142.1213  137.8242  158.0741 O.2     1  UNL1       -0.2748
     15 C         144.2058  140.0504  157.3575 C.3     1  UNL1        0.1750
     16 S         148.0311  142.9046  153.7622 S.O2    1  UNL1        0.0086
     17 O         148.5755  141.5636  153.3681 O.2     1  UNL1       -0.1686
     18 O         147.4867  144.2456  154.1564 O.2     1  UNL1       -0.1686
     19 C         150.4445  143.6002  153.0981 C.3     1  UNL1        0.0276
     20 C         148.9741  143.5692  152.8036 C.3     1  UNL1        0.1560
     21 C         142.4061  136.8831  155.6693 C.3     1  UNL1        0.1014
     22 C         143.2294  135.6383  155.5185 C.3     1  UNL1        0.1150
     23 C         143.4844  134.7593  156.7069 C.1     1  UNL1        0.0737
     24 N         143.7395  133.8803  157.8953 N.1     1  UNL1       -0.1959
     25 C         143.6368  139.3996  161.2308 C.ar    1  UNL1        0.0503
     26 C         144.4802  140.1703  162.2028 C.ar    1  UNL1        0.0144
     27 C         144.0166  140.3530  163.6176 C.ar    1  UNL1       -0.0002
     28 C         142.7097  139.7650  164.0605 C.ar    1  UNL1        0.0182
     29 C         141.8664  138.9943  163.0886 C.ar    1  UNL1       -0.0002
     30 C         142.3299  138.8116  161.6737 C.ar    1  UNL1        0.0144
     31 C         142.2461  139.9477  165.4754 C.3     1  UNL1        0.2827
     32 O         141.4093  141.1176  165.0501 O.3     1  UNL1       -0.3692
     33 H         141.5116  141.2585  164.0959 H       1  UNL1        0.2112
     34 C         141.7826  140.1303  166.8902 C.3     1  UNL1        0.4311
     35 F         141.3190  140.3130  168.3050 F       1  UNL1       -0.1669
     36 F         142.6567  141.3423  167.0201 F       1  UNL1       -0.1669
     37 F         141.2369  139.4331  166.9158 F       1  UNL1       -0.1669
     38 C         143.0830  138.7777  165.9006 C.3     1  UNL1        0.4311
     39 F         143.9198  137.6077  166.3258 F       1  UNL1       -0.1669
     40 F         143.7429  139.2433  166.2641 F       1  UNL1       -0.1669
     41 F         142.2927  137.5842  165.4523 F       1  UNL1       -0.1669
@<TRIPOS>BOND
     1    19    20    1
     2    20    16    1
     3    16    17    2
     4    16    18    2
     5    16     5    1
     6     5     6   ar
     7     6     7   ar
     8     7     8   ar
     9     8     9   ar
    10     9    10   ar
    11     9    11    1
    12    11    12    1
    13    12    13   am
    14    13    14    2
    15    13    21    1
    16    21    22    1
    17    22    23    1
    18    23    24    3
    19    12    15    1
    20    15     1    1
    21     1     2    2
    22     1     3   am
    23     3    25    1
    24    25    26   ar
    25    26    27   ar
    26    27    28   ar
    27    28    31    1
    28    31    32    1
    29    31    34    1
    30    34    35    1
    31    34    36    1
    32    34    37    1
    33    31    38    1
    34    38    39    1
    35    38    40    1
    36    38    41    1
    37    28    29   ar
    38    29    30   ar
    39    10     5   ar
    40    30    25   ar
    41    15     8    1
    42     3     4    1
    43    32    33    1
@<TRIPOS>MOLECULE
*****
 41 43 0 0 0
SMALL
GASTEIGER

@<TRIPOS>ATOM
      1 C         141.7143  139.1782  158.7762 C.2     1  UNL1        0.2485
      2 O         142.4863  138.3163  159.7307 O.2     1  UNL1       -0.2726
      3 N         140.4729  139.8825  159.2377 N.am    1  UNL1       -0.2823
      4 H         139.9662  140.4481  158.6113 H       1  UNL1        0.1549
      5 C         145.6828  141.3764  155.4512 C.ar    1  UNL1        0.1054
      6 C         145.6000  141.4731  156.9458 C.ar    1  UNL1        0.0181
      7 C         144.4641  140.8220  157.6778 C.ar    1  UNL1       -0.0011
      8 C         143.4110  140.0741  156.9152 C.ar    1  UNL1        0.0022
      9 C         143.4938  139.9773  155.4207 C.ar    1  UNL1       -0.0030
     10 C         144.6297  140.6285  154.6887 C.ar    1  UNL1        0.0155
     11 C         142.3174  139.1791  154.9419 C.3     1  UNL1        0.1206
     12 N         141.5076  138.7826  156.1407 N.am    1  UNL1       -0.2654
     13 C         140.2437  137.9749  156.1230 C.2     1  UNL1        0.2275
     14 O         139.5402  137.6548  157.4085 O.2     1  UNL1       -0.2748
     15 C         142.1835  139.3357  157.3602 C.3     1  UNL1        0.1750
     16 S         146.8186  142.0275  154.7193 S.O2    1  UNL1        0.0086
     17 O         147.2489  142.7028  155.9877 O.2     1  UNL1       -0.1686
     18 O         146.3884  141.3522  153.4508 O.2     1  UNL1       -0.1686
     19 C         147.7903  144.0589  153.4234 C.3     1  UNL1        0.0276
     20 C         147.9545  142.6787  153.9873 C.3     1  UNL1        0.1560
     21 C         139.6835  137.4872  154.8198 C.3     1  UNL1        0.1014
     22 C         140.2480  136.2565  154.1744 C.3     1  UNL1        0.1150
     23 C         141.0740  135.2984  154.9806 C.1     1  UNL1        0.0737
     24 N         141.8999  134.3404  155.7869 N.1     1  UNL1       -0.1959
     25 C         140.0037  139.7249  160.6537 C.ar    1  UNL1        0.0503
     26 C         140.5183  140.6446  161.7211 C.ar    1  UNL1        0.0144
     27 C         140.0491  140.4870  163.1371 C.ar    1  UNL1       -0.0002
     28 C         139.0653  139.4098  163.4857 C.ar    1  UNL1        0.0182
     29 C         138.5507  138.4901  162.4183 C.ar    1  UNL1       -0.0002
     30 C         139.0199  138.6476  161.0023 C.ar    1  UNL1        0.0144
     31 C         138.5960  139.2522  164.9017 C.3     1  UNL1        0.2827
     32 O         137.7155  140.4562  164.7439 O.3     1  UNL1       -0.3692
     33 H         137.8118  140.8119  163.8466 H       1  UNL1        0.2112
     34 C         138.1268  139.0946  166.3176 C.3     1  UNL1        0.4311
     35 F         137.6576  138.9370  167.7336 F       1  UNL1       -0.1669
     36 F         138.9893  140.2498  166.7320 F       1  UNL1       -0.1669
     37 F         137.5875  138.4062  166.1767 F       1  UNL1       -0.1669
     38 C         139.4766  138.0481  165.0595 C.3     1  UNL1        0.4311
     39 F         140.3571  136.8441  165.2173 F       1  UNL1       -0.1669
     40 F         140.2278  138.4853  165.2299 F       1  UNL1       -0.1669
     41 F         138.5509  136.8895  164.8343 F       1  UNL1       -0.1669
@<TRIPOS>BOND
     1    19    20    1
     2    20    16    1
     3    16    17    2
     4    16    18    2
     5    16     5    1
     6     5     6   ar
     7     6     7   ar
     8     7     8   ar
     9     8     9   ar
    10     9    10   ar
    11     9    11    1
    12    11    12    1
    13    12    13   am
    14    13    14    2
    15    13    21    1
    16    21    22    1
    17    22    23    1
    18    23    24    3
    19    12    15    1
    20    15     1    1
    21     1     2    2
    22     1     3   am
    23     3    25    1
    24    25    26   ar
    25    26    27   ar
    26    27    28   ar
    27    28    31    1
    28    31    32    1
    29    31    34    1
    30    34    35    1
    31    34    36    1
    32    34    37    1
    33    31    38    1
    34    38    39    1
    35    38    40    1
    36    38    41    1
    37    28    29   ar
    38    29    30   ar
    39    10     5   ar
    40    30    25   ar
    41    15     8    1
    42     3     4    1
    43    32    33    1
@<TRIPOS>MOLECULE
*****
 41 43 0 0 0
SMALL
GASTEIGER

@<TRIPOS>ATOM
      1 C         142.8627  139.0900  157.9347 C.2     1  UNL1        0.2485
      2 O         143.0885  137.9453  158.8772 O.2     1  UNL1       -0.2726
      3 N         142.5800  138.8239  156.4858 N.am    1  UNL1       -0.2823
      4 H         142.4317  139.5752  155.8671 H       1  UNL1        0.1549
      5 C         140.2997  142.9531  161.1196 C.ar    1  UNL1        0.1054
      6 C         139.8515  141.5431  160.8725 C.ar    1  UNL1        0.0181
      7 C         140.6624  140.6423  159.9888 C.ar    1  UNL1       -0.0011
      8 C         141.9215  141.1515  159.3521 C.ar    1  UNL1        0.0022
      9 C         142.3696  142.5615  159.5991 C.ar    1  UNL1       -0.0030
     10 C         141.5587  143.4623  160.4829 C.ar    1  UNL1        0.0155
     11 C         143.6448  142.7823  158.8406 C.3     1  UNL1        0.1206
     12 N         143.9847  141.5087  158.1248 N.am    1  UNL1       -0.2654
     13 C         145.1799  141.2826  157.2469 C.2     1  UNL1        0.2275
     14 O         145.3893  139.9485  156.5940 O.2     1  UNL1       -0.2748
     15 C         142.9197  140.5009  158.4409 C.3     1  UNL1        0.1750
     16 S         139.4887  143.8538  162.0033 S.O2    1  UNL1        0.0086
     17 O         138.2344  143.3931  161.3220 O.2     1  UNL1       -0.1686
     18 O         140.7431  144.3146  162.6847 O.2     1  UNL1       -0.1686
     19 C         138.8630  144.7105  164.3749 C.3     1  UNL1        0.0276
     20 C         138.6778  144.7546  162.8871 C.3     1  UNL1        0.1560
     21 C         146.1656  142.3907  157.0219 C.3     1  UNL1        0.1014
     22 C         146.8700  142.5116  155.7032 C.3     1  UNL1        0.1150
     23 C         148.2716  141.9991  155.5519 C.1     1  UNL1        0.0737
     24 N         149.6732  141.4866  155.4006 N.1     1  UNL1       -0.1959
     25 C         142.5230  137.4131  155.9796 C.ar    1  UNL1        0.0503
     26 C         143.7919  136.6459  155.7526 C.ar    1  UNL1        0.0144
     27 C         143.7349  135.2350  155.2464 C.ar    1  UNL1       -0.0002
     28 C         142.4092  134.5913  154.9671 C.ar    1  UNL1        0.0182
     29 C         141.1404  135.3585  155.1940 C.ar    1  UNL1       -0.0002
     30 C         141.1973  136.7693  155.7002 C.ar    1  UNL1        0.0144
     31 C         142.3523  133.1805  154.4609 C.3     1  UNL1        0.2827
     32 O         142.1289  133.6894  153.0676 O.3     1  UNL1       -0.3692
     33 H         142.1155  134.6593  153.0759 H       1  UNL1        0.2112
     34 C         142.2954  131.7696  153.9546 C.3     1  UNL1        0.4311
     35 F         142.2384  130.3588  153.4484 F       1  UNL1       -0.1669
     36 F         140.8058  131.7664  154.1311 F       1  UNL1       -0.1669
     37 F         143.1643  131.6700  153.8148 F       1  UNL1       -0.1669
     38 C         142.5756  132.6716  155.8541 C.3     1  UNL1        0.4311
     39 F         142.7990  132.1626  157.2473 F       1  UNL1       -0.1669
     40 F         141.7385  132.7489  156.1328 F       1  UNL1       -0.1669
     41 F         144.0423  132.3597  155.8958 F       1  UNL1       -0.1669
@<TRIPOS>BOND
     1    19    20    1
     2    20    16    1
     3    16    17    2
     4    16    18    2
     5    16     5    1
     6     5     6   ar
     7     6     7   ar
     8     7     8   ar
     9     8     9   ar
    10     9    10   ar
    11     9    11    1
    12    11    12    1
    13    12    13   am
    14    13    14    2
    15    13    21    1
    16    21    22    1
    17    22    23    1
    18    23    24    3
    19    12    15    1
    20    15     1    1
    21     1     2    2
    22     1     3   am
    23     3    25    1
    24    25    26   ar
    25    26    27   ar
    26    27    28   ar
    27    28    31    1
    28    31    32    1
    29    31    34    1
    30    34    35    1
    31    34    36    1
    32    34    37    1
    33    31    38    1
    34    38    39    1
    35    38    40    1
    36    38    41    1
    37    28    29   ar
    38    29    30   ar
    39    10     5   ar
    40    30    25   ar
    41    15     8    1
    42     3     4    1
    43    32    33    1
@<TRIPOS>MOLECULE
*****
 41 43 0 0 0
SMALL
GASTEIGER

@<TRIPOS>ATOM
      1 C         142.4045  138.0688  157.3745 C.2     1  UNL1        0.2485
      2 O         141.2659  138.2354  158.3367 O.2     1  UNL1       -0.2726
      3 N         143.6046  138.9635  157.4706 N.am    1  UNL1       -0.2823
      4 H         144.3519  138.8542  156.8391 H       1  UNL1        0.1549
      5 C         143.5870  132.7092  156.1448 C.ar    1  UNL1        0.1054
      6 C         143.8429  133.4167  157.4425 C.ar    1  UNL1        0.0181
      7 C         143.4612  134.8589  157.5984 C.ar    1  UNL1       -0.0011
      8 C         142.8236  135.5936  156.4566 C.ar    1  UNL1        0.0022
      9 C         142.5677  134.8861  155.1590 C.ar    1  UNL1       -0.0030
     10 C         142.9494  133.4439  155.0031 C.ar    1  UNL1        0.0155
     11 C         141.9289  135.8628  154.2165 C.3     1  UNL1        0.1206
     12 N         141.7900  137.1740  154.9318 N.am    1  UNL1       -0.2654
     13 C         141.2015  138.4309  154.3626 C.2     1  UNL1        0.2275
     14 O         141.1289  139.6720  155.2018 O.2     1  UNL1       -0.2748
     15 C         142.3429  137.0076  156.3162 C.3     1  UNL1        0.1750
     16 S         143.9687  131.2670  155.9889 S.O2    1  UNL1        0.0086
     17 O         142.5240  130.9036  155.8134 O.2     1  UNL1       -0.1686
     18 O         145.4134  131.6304  156.1645 O.2     1  UNL1       -0.1686
     19 C         144.8372  129.3168  154.5083 C.3     1  UNL1        0.0276
     20 C         144.3505  129.8248  155.8330 C.3     1  UNL1        0.1560
     21 C         140.6856  138.4466  152.9542 C.3     1  UNL1        0.1014
     22 C         139.2784  138.0148  152.6660 C.3     1  UNL1        0.1150
     23 C         138.3345  137.7310  153.7968 C.1     1  UNL1        0.0737
     24 N         137.3906  137.4472  154.9275 N.1     1  UNL1       -0.1959
     25 C         143.6661  140.0248  158.5289 C.ar    1  UNL1        0.0503
     26 C         143.7712  141.4690  158.1376 C.ar    1  UNL1        0.0144
     27 C         143.8327  142.5303  159.1958 C.ar    1  UNL1       -0.0002
     28 C         143.7891  142.1474  160.6454 C.ar    1  UNL1        0.0182
     29 C         143.6839  140.7031  161.0368 C.ar    1  UNL1       -0.0002
     30 C         143.6224  139.6419  159.9785 C.ar    1  UNL1        0.0144
     31 C         143.8506  143.2086  161.7037 C.3     1  UNL1        0.2827
     32 O         142.7634  143.9692  161.0041 O.3     1  UNL1       -0.3692
     33 H         142.4916  143.4862  160.2081 H       1  UNL1        0.2112
     34 C         143.9121  144.2699  162.7620 C.3     1  UNL1        0.4311
     35 F         143.9736  145.3311  163.8203 F       1  UNL1       -0.1669
     36 F         142.5559  143.8584  163.2534 F       1  UNL1       -0.1669
     37 F         144.7114  144.5874  162.5501 F       1  UNL1       -0.1669
     38 C         144.9378  142.4480  162.4033 C.3     1  UNL1        0.4311
     39 F         146.0250  141.6873  163.1029 F       1  UNL1       -0.1669
     40 F         145.5474  142.5189  161.7647 F       1  UNL1       -0.1669
     41 F         144.3212  142.0558  163.7133 F       1  UNL1       -0.1669
@<TRIPOS>BOND
     1    19    20    1
     2    20    16    1
     3    16    17    2
     4    16    18    2
     5    16     5    1
     6     5     6   ar
     7     6     7   ar
     8     7     8   ar
     9     8     9   ar
    10     9    10   ar
    11     9    11    1
    12    11    12    1
    13    12    13   am
    14    13    14    2
    15    13    21    1
    16    21    22    1
    17    22    23    1
    18    23    24    3
    19    12    15    1
    20    15     1    1
    21     1     2    2
    22     1     3   am
    23     3    25    1
    24    25    26   ar
    25    26    27   ar
    26    27    28   ar
    27    28    31    1
    28    31    32    1
    29    31    34    1
    30    34    35    1
    31    34    36    1
    32    34    37    1
    33    31    38    1
    34    38    39    1
    35    38    40    1
    36    38    41    1
    37    28    29   ar
    38    29    30   ar
    39    10     5   ar
    40    30    25   ar
    41    15     8    1
    42     3     4    1
    43    32    33    1
@<TRIPOS>MOLECULE
*****
 41 43 0 0 0
SMALL
GASTEIGER

@<TRIPOS>ATOM
      1 C         142.7788  139.0139  158.3288 C.2     1  UNL1        0.2485
      2 O         143.6287  138.4771  159.4421 O.2     1  UNL1       -0.2726
      3 N         141.3580  139.4140  158.5959 N.am    1  UNL1       -0.2823
      4 H         140.8002  139.7663  157.8652 H       1  UNL1        0.1549
      5 C         146.2484  141.9855  155.0473 C.ar    1  UNL1        0.1054
      6 C         145.9523  142.2225  156.4985 C.ar    1  UNL1        0.0181
      7 C         144.9937  141.3259  157.2246 C.ar    1  UNL1       -0.0011
      8 C         144.3312  140.1922  156.4995 C.ar    1  UNL1        0.0022
      9 C         144.6273  139.9552  155.0482 C.ar    1  UNL1       -0.0030
     10 C         145.5859  140.8518  154.3222 C.ar    1  UNL1        0.0155
     11 C         143.8287  138.7670  154.6002 C.3     1  UNL1        0.1206
     12 N         143.0391  138.2698  155.7746 N.am    1  UNL1       -0.2654
     13 C         142.1031  137.0976  155.7752 C.2     1  UNL1        0.2275
     14 O         141.3787  136.7168  157.0322 O.2     1  UNL1       -0.2748
     15 C         143.3496  139.1507  156.9484 C.3     1  UNL1        0.1750
     16 S         147.2070  142.8821  154.3212 S.O2    1  UNL1        0.0086
     17 O         146.1241  143.9070  154.1572 O.2     1  UNL1       -0.1686
     18 O         148.2899  141.8572  154.4852 O.2     1  UNL1       -0.1686
     19 C         149.3046  143.1871  152.8189 C.3     1  UNL1        0.0276
     20 C         148.1656  143.7787  153.5951 C.3     1  UNL1        0.1560
     21 C         141.8916  136.3062  154.5186 C.3     1  UNL1        0.1014
     22 C         142.5815  134.9866  154.3383 C.3     1  UNL1        0.1150
     23 C         142.4270  133.9118  155.3733 C.1     1  UNL1        0.0737
     24 N         142.2726  132.8371  156.4082 N.1     1  UNL1       -0.1959
     25 C         140.7872  139.2773  159.9762 C.ar    1  UNL1        0.0503
     26 C         139.6611  138.3195  160.2307 C.ar    1  UNL1        0.0144
     27 C         139.0903  138.1828  161.6111 C.ar    1  UNL1       -0.0002
     28 C         139.6455  139.0037  162.7370 C.ar    1  UNL1        0.0182
     29 C         140.7716  139.9615  162.4826 C.ar    1  UNL1       -0.0002
     30 C         141.3424  140.0982  161.1022 C.ar    1  UNL1        0.0144
     31 C         139.0747  138.8670  164.1174 C.3     1  UNL1        0.2827
     32 O         138.0116  139.8690  163.7771 O.3     1  UNL1       -0.3692
     33 H         138.1305  140.1684  162.8621 H       1  UNL1        0.2112
     34 C         138.5038  138.7303  165.4978 C.3     1  UNL1        0.4311
     35 F         137.9330  138.5935  166.8782 F       1  UNL1       -0.1669
     36 F         138.7938  140.1782  165.7611 F       1  UNL1       -0.1669
     37 F         138.2928  137.8718  165.4428 F       1  UNL1       -0.1669
     38 C         140.1377  137.8650  164.4577 C.3     1  UNL1        0.4311
     39 F         141.2007  136.8629  164.7981 F       1  UNL1       -0.1669
     40 F         139.8220  137.2007  163.9642 F       1  UNL1       -0.1669
     41 F         141.0444  138.6027  165.3978 F       1  UNL1       -0.1669
@<TRIPOS>BOND
     1    19    20    1
     2    20    16    1
     3    16    17    2
     4    16    18    2
     5    16     5    1
     6     5     6   ar
     7     6     7   ar
     8     7     8   ar
     9     8     9   ar
    10     9    10   ar
    11     9    11    1
    12    11    12    1
    13    12    13   am
    14    13    14    2
    15    13    21    1
    16    21    22    1
    17    22    23    1
    18    23    24    3
    19    12    15    1
    20    15     1    1
    21     1     2    2
    22     1     3   am
    23     3    25    1
    24    25    26   ar
    25    26    27   ar
    26    27    28   ar
    27    28    31    1
    28    31    32    1
    29    31    34    1
    30    34    35    1
    31    34    36    1
    32    34    37    1
    33    31    38    1
    34    38    39    1
    35    38    40    1
    36    38    41    1
    37    28    29   ar
    38    29    30   ar
    39    10     5   ar
    40    30    25   ar
    41    15     8    1
    42     3     4    1
    43    32    33    1
