@<TRIPOS>MOLECULE
*****
 22 25 0 0 0
SMALL
GASTEIGER

@<TRIPOS>ATOM
      1 O         137.0093  138.2824  167.1052 O.2     1  UNL1       -0.2638
      2 C         138.3723  138.7270  166.6643 C.ar    1  UNL1        0.2947
      3 N         138.8471  138.4234  165.2742 N.ar    1  UNL1       -0.3062
      4 C         140.2101  138.8680  164.8334 C.ar    1  UNL1        0.1338
      5 N         141.0985  139.6162  165.7826 N.ar    1  UNL1       -0.2279
      6 C         140.6238  139.9197  167.1727 C.ar    1  UNL1        0.1247
      7 C         139.2607  139.4751  167.6136 C.ar    1  UNL1        0.2184
      8 O         139.0666  139.9153  169.0344 O.2     1  UNL1       -0.4471
      9 C         140.3097  140.6319  169.4716 C.ar    1  UNL1        0.1471
     10 C         140.6897  141.2823  170.7687 C.ar    1  UNL1        0.0384
     11 C         142.0320  141.9354  170.9153 C.ar    1  UNL1        0.0145
     12 C         142.9944  141.9381  169.7647 C.ar    1  UNL1        0.0579
     13 CL        144.3368  142.5913  169.9114 Cl      1  UNL1       -0.0822
     14 C         142.6144  141.2878  168.4676 C.ar    1  UNL1        0.0160
     15 C         141.2721  140.6347  168.3210 C.ar    1  UNL1        0.0562
     16 H         138.2640  137.9323  164.6512 H       1  UNL1        0.1702
     17 C         140.6849  138.5644  163.4432 C.3     1  UNL1        0.1116
     18 C         142.0349  138.0273  163.0702 C.3     1  UNL1        0.0249
     19 C         142.0774  137.8755  161.5785 C.3     1  UNL1        0.0189
     20 C         140.7537  138.3189  161.0296 C.3     1  UNL1        0.0689
     21 N         139.8931  138.7446  162.1820 N.3     1  UNL1       -0.2926
     22 H         139.0515  138.1694  162.2165 H       1  UNL1        0.1236
@<TRIPOS>BOND
     1     1     2    2
     2     2     3   ar
     3     3     4   ar
     4    17     4    1
     5    17    18    1
     6    18    19    1
     7    19    20    1
     8    20    21    1
     9     4     5   ar
    10     5     6   ar
    11     6     7   ar
    12     7     8   ar
    13     8     9   ar
    14     9    10   ar
    15    10    11   ar
    16    11    12   ar
    17    12    13    1
    18    12    14   ar
    19    14    15   ar
    20     7     2   ar
    21    15     9   ar
    22    21    17    1
    23    15     6   ar
    24     3    16    1
    25    21    22    1
@<TRIPOS>MOLECULE
*****
 22 25 0 0 0
SMALL
GASTEIGER

@<TRIPOS>ATOM
      1 O         136.9980  137.6630  167.2584 O.2     1  UNL1       -0.2638
      2 C         138.1281  138.6065  166.9712 C.ar    1  UNL1        0.2947
      3 N         138.6274  139.5276  168.0446 N.ar    1  UNL1       -0.3062
      4 C         139.7575  140.4711  167.7574 C.ar    1  UNL1        0.1338
      5 N         140.3883  140.4937  166.3966 N.ar    1  UNL1       -0.2279
      6 C         139.8890  139.5726  165.3231 C.ar    1  UNL1        0.1247
      7 C         138.7589  138.6291  165.6104 C.ar    1  UNL1        0.2184
      8 O         138.4819  137.8442  164.3626 O.2     1  UNL1       -0.4471
      9 C         139.4408  138.3026  163.3041 C.ar    1  UNL1        0.1471
     10 C         139.6344  137.8853  161.8764 C.ar    1  UNL1        0.0384
     11 C         140.6977  138.5363  161.0424 C.ar    1  UNL1        0.0145
     12 C         141.5673  139.6046  161.6361 C.ar    1  UNL1        0.0579
     13 CL        142.6306  140.2557  160.8020 Cl      1  UNL1       -0.0822
     14 C         141.3737  140.0219  163.0638 C.ar    1  UNL1        0.0160
     15 C         140.3105  139.3709  163.8978 C.ar    1  UNL1        0.0562
     16 H         138.2134  139.5128  168.9377 H       1  UNL1        0.1702
     17 C         140.2569  141.3922  168.8309 C.3     1  UNL1        0.1116
     18 C         140.5885  142.8453  168.6617 C.3     1  UNL1        0.0249
     19 C         141.0489  143.3730  169.9882 C.3     1  UNL1        0.0189
     20 C         141.0017  142.2462  170.9771 C.3     1  UNL1        0.0689
     21 N         140.5122  141.0220  170.2618 N.3     1  UNL1       -0.2926
     22 H         139.6491  140.6910  170.6930 H       1  UNL1        0.1236
@<TRIPOS>BOND
     1     1     2    2
     2     2     3   ar
     3     3     4   ar
     4    17     4    1
     5    17    18    1
     6    18    19    1
     7    19    20    1
     8    20    21    1
     9     4     5   ar
    10     5     6   ar
    11     6     7   ar
    12     7     8   ar
    13     8     9   ar
    14     9    10   ar
    15    10    11   ar
    16    11    12   ar
    17    12    13    1
    18    12    14   ar
    19    14    15   ar
    20     7     2   ar
    21    15     9   ar
    22    21    17    1
    23    15     6   ar
    24     3    16    1
    25    21    22    1
@<TRIPOS>MOLECULE
*****
 22 25 0 0 0
SMALL
GASTEIGER

@<TRIPOS>ATOM
      1 O         138.3966  139.3415  164.1978 O.2     1  UNL1       -0.2638
      2 C         139.2623  140.5365  164.4670 C.ar    1  UNL1        0.2947
      3 N         139.2558  141.6967  163.5163 N.ar    1  UNL1       -0.3062
      4 C         140.1215  142.8917  163.7854 C.ar    1  UNL1        0.1338
      5 N         140.9938  142.9266  165.0052 N.ar    1  UNL1       -0.2279
      6 C         141.0003  141.7664  165.9559 C.ar    1  UNL1        0.1247
      7 C         140.1346  140.5714  165.6868 C.ar    1  UNL1        0.2184
      8 O         140.3496  139.5842  166.7955 O.2     1  UNL1       -0.4471
      9 C         141.3482  140.1690  167.7498 C.ar    1  UNL1        0.1471
     10 C         141.9433  139.6478  169.0242 C.ar    1  UNL1        0.0384
     11 C         142.9405  140.4752  169.7797 C.ar    1  UNL1        0.0145
     12 C         143.3426  141.8239  169.2609 C.ar    1  UNL1        0.0579
     13 CL        144.3399  142.6514  170.0165 Cl      1  UNL1       -0.0822
     14 C         142.7476  142.3452  167.9865 C.ar    1  UNL1        0.0160
     15 C         141.7504  141.5178  167.2309 C.ar    1  UNL1        0.0562
     16 H         138.6833  141.6739  162.7156 H       1  UNL1        0.1702
     17 C         140.1150  144.0520  162.8347 C.3     1  UNL1        0.1116
     18 C         140.4716  144.0007  161.3786 C.3     1  UNL1        0.0249
     19 C         140.3277  145.3842  160.8171 C.3     1  UNL1        0.0189
     20 C         139.8823  146.2905  161.9262 C.3     1  UNL1        0.0689
     21 N         139.7508  145.4672  163.1731 N.3     1  UNL1       -0.2926
     22 H         138.7901  145.5054  163.5135 H       1  UNL1        0.1236
@<TRIPOS>BOND
     1     1     2    2
     2     2     3   ar
     3     3     4   ar
     4    17     4    1
     5    17    18    1
     6    18    19    1
     7    19    20    1
     8    20    21    1
     9     4     5   ar
    10     5     6   ar
    11     6     7   ar
    12     7     8   ar
    13     8     9   ar
    14     9    10   ar
    15    10    11   ar
    16    11    12   ar
    17    12    13    1
    18    12    14   ar
    19    14    15   ar
    20     7     2   ar
    21    15     9   ar
    22    21    17    1
    23    15     6   ar
    24     3    16    1
    25    21    22    1
@<TRIPOS>MOLECULE
*****
 22 25 0 0 0
SMALL
GASTEIGER

@<TRIPOS>ATOM
      1 O         137.2449  138.1186  166.7301 O.2     1  UNL1       -0.2638
      2 C         138.0842  139.3370  166.4830 C.ar    1  UNL1        0.2947
      3 N         138.0428  140.0178  165.1470 N.ar    1  UNL1       -0.3062
      4 C         138.8822  141.2362  164.8999 C.ar    1  UNL1        0.1338
      5 N         139.7629  141.7737  165.9886 N.ar    1  UNL1       -0.2279
      6 C         139.8043  141.0929  167.3246 C.ar    1  UNL1        0.1247
      7 C         138.9649  139.8745  167.5717 C.ar    1  UNL1        0.2184
      8 O         139.2119  139.4194  168.9795 O.2     1  UNL1       -0.4471
      9 C         140.2039  140.3564  169.6024 C.ar    1  UNL1        0.1471
     10 C         140.8210  140.4015  170.9688 C.ar    1  UNL1        0.0384
     11 C         141.8043  141.4809  171.3123 C.ar    1  UNL1        0.0145
     12 C         142.1704  142.5152  170.2895 C.ar    1  UNL1        0.0579
     13 CL        143.1538  143.5946  170.6331 Cl      1  UNL1       -0.0822
     14 C         141.5532  142.4701  168.9231 C.ar    1  UNL1        0.0160
     15 C         140.5700  141.3907  168.5796 C.ar    1  UNL1        0.0562
     16 H         137.4648  139.6650  164.4324 H       1  UNL1        0.1702
     17 C         138.8408  141.9170  163.5639 C.3     1  UNL1        0.1116
     18 C         137.7796  141.7430  162.5182 C.3     1  UNL1        0.0249
     19 C         138.1363  142.6098  161.3471 C.3     1  UNL1        0.0189
     20 C         139.4179  143.3195  161.6691 C.3     1  UNL1        0.0689
     21 N         139.8533  142.8913  163.0391 N.3     1  UNL1       -0.2926
     22 H         139.9048  143.7026  163.6553 H       1  UNL1        0.1236
@<TRIPOS>BOND
     1     1     2    2
     2     2     3   ar
     3     3     4   ar
     4    17     4    1
     5    17    18    1
     6    18    19    1
     7    19    20    1
     8    20    21    1
     9     4     5   ar
    10     5     6   ar
    11     6     7   ar
    12     7     8   ar
    13     8     9   ar
    14     9    10   ar
    15    10    11   ar
    16    11    12   ar
    17    12    13    1
    18    12    14   ar
    19    14    15   ar
    20     7     2   ar
    21    15     9   ar
    22    21    17    1
    23    15     6   ar
    24     3    16    1
    25    21    22    1
@<TRIPOS>MOLECULE
*****
 22 25 0 0 0
SMALL
GASTEIGER

@<TRIPOS>ATOM
      1 O         144.3557  136.9589  167.1038 O.2     1  UNL1       -0.2638
      2 C         143.7907  138.2657  166.6315 C.ar    1  UNL1        0.2947
      3 N         143.8760  138.6393  165.1813 N.ar    1  UNL1       -0.3062
      4 C         143.3110  139.9461  164.7091 C.ar    1  UNL1        0.1338
      5 N         142.6607  140.8793  165.6870 N.ar    1  UNL1       -0.2279
      6 C         142.5754  140.5056  167.1372 C.ar    1  UNL1        0.1247
      7 C         143.1404  139.1988  167.6095 C.ar    1  UNL1        0.2184
      8 O         142.9111  139.1023  169.0887 O.2     1  UNL1       -0.4471
      9 C         142.2045  140.3494  169.5307 C.ar    1  UNL1        0.1471
     10 C         141.7231  140.8072  170.8755 C.ar    1  UNL1        0.0384
     11 C         141.0342  142.1324  171.0142 C.ar    1  UNL1        0.0145
     12 C         140.8268  142.9998  169.8081 C.ar    1  UNL1        0.0579
     13 CL        140.1379  144.3250  169.9469 Cl      1  UNL1       -0.0822
     14 C         141.3081  142.5419  168.4633 C.ar    1  UNL1        0.0160
     15 C         141.9970  141.2167  168.3246 C.ar    1  UNL1        0.0562
     16 H         144.3027  138.0268  164.5395 H       1  UNL1        0.1702
     17 C         143.3962  140.3198  163.2588 C.3     1  UNL1        0.1116
     18 C         142.4377  141.2048  162.5187 C.3     1  UNL1        0.0249
     19 C         142.9040  141.3061  161.0966 C.3     1  UNL1        0.0189
     20 C         144.1506  140.4836  160.9579 C.3     1  UNL1        0.0689
     21 N         144.4549  139.8740  162.2942 N.3     1  UNL1       -0.2926
     22 H         145.3707  140.1864  162.6168 H       1  UNL1        0.1236
@<TRIPOS>BOND
     1     1     2    2
     2     2     3   ar
     3     3     4   ar
     4    17     4    1
     5    17    18    1
     6    18    19    1
     7    19    20    1
     8    20    21    1
     9     4     5   ar
    10     5     6   ar
    11     6     7   ar
    12     7     8   ar
    13     8     9   ar
    14     9    10   ar
    15    10    11   ar
    16    11    12   ar
    17    12    13    1
    18    12    14   ar
    19    14    15   ar
    20     7     2   ar
    21    15     9   ar
    22    21    17    1
    23    15     6   ar
    24     3    16    1
    25    21    22    1
@<TRIPOS>MOLECULE
*****
 22 25 0 0 0
SMALL
GASTEIGER

@<TRIPOS>ATOM
      1 O         138.4276  145.4615  166.0851 O.2     1  UNL1       -0.2638
      2 C         139.3109  144.6077  165.2244 C.ar    1  UNL1        0.2947
      3 N         139.4698  144.9239  163.7668 N.ar    1  UNL1       -0.3062
      4 C         140.3531  144.0702  162.9061 C.ar    1  UNL1        0.1338
      5 N         141.0775  142.9001  163.5031 N.ar    1  UNL1       -0.2279
      6 C         140.9186  142.5839  164.9607 C.ar    1  UNL1        0.1247
      7 C         140.0353  143.4377  165.8214 C.ar    1  UNL1        0.2184
      8 O         140.0729  142.8854  167.2155 O.2     1  UNL1       -0.4471
      9 C         140.9794  141.6903  167.2164 C.ar    1  UNL1        0.1471
     10 C         141.3964  140.7477  168.3062 C.ar    1  UNL1        0.0384
     11 C         142.3361  139.6188  168.0023 C.ar    1  UNL1        0.0145
     12 C         142.8589  139.4324  166.6087 C.ar    1  UNL1        0.0579
     13 CL        143.7986  138.3034  166.3049 Cl      1  UNL1       -0.0822
     14 C         142.4418  140.3750  165.5190 C.ar    1  UNL1        0.0160
     15 C         141.5021  141.5040  165.8228 C.ar    1  UNL1        0.0562
     16 H         138.9944  145.6918  163.3750 H       1  UNL1        0.1702
     17 C         140.5120  144.3864  161.4484 C.3     1  UNL1        0.1116
     18 C         139.7253  143.7808  160.3241 C.3     1  UNL1        0.0249
     19 C         140.2126  144.3838  159.0399 C.3     1  UNL1        0.0189
     20 C         141.3005  145.3620  159.3707 C.3     1  UNL1        0.0689
     21 N         141.4856  145.3636  160.8592 N.3     1  UNL1       -0.2926
     22 H         141.3060  146.2970  161.2294 H       1  UNL1        0.1236
@<TRIPOS>BOND
     1     1     2    2
     2     2     3   ar
     3     3     4   ar
     4    17     4    1
     5    17    18    1
     6    18    19    1
     7    19    20    1
     8    20    21    1
     9     4     5   ar
    10     5     6   ar
    11     6     7   ar
    12     7     8   ar
    13     8     9   ar
    14     9    10   ar
    15    10    11   ar
    16    11    12   ar
    17    12    13    1
    18    12    14   ar
    19    14    15   ar
    20     7     2   ar
    21    15     9   ar
    22    21    17    1
    23    15     6   ar
    24     3    16    1
    25    21    22    1
@<TRIPOS>MOLECULE
*****
 22 25 0 0 0
SMALL
GASTEIGER

@<TRIPOS>ATOM
      1 O         143.7549  137.5312  166.1241 O.2     1  UNL1       -0.2638
      2 C         142.6070  138.4914  166.0225 C.ar    1  UNL1        0.2947
      3 N         141.6067  138.3498  164.9138 N.ar    1  UNL1       -0.3062
      4 C         140.4588  139.3099  164.8122 C.ar    1  UNL1        0.1338
      5 N         140.3112  140.4118  165.8193 N.ar    1  UNL1       -0.2279
      6 C         141.3116  140.5534  166.9280 C.ar    1  UNL1        0.1247
      7 C         142.4595  139.5932  167.0296 C.ar    1  UNL1        0.2184
      8 O         143.2824  139.9793  168.2228 O.2     1  UNL1       -0.4471
      9 C         142.6431  141.1780  168.8586 C.ar    1  UNL1        0.1471
     10 C         143.0128  141.9923  170.0628 C.ar    1  UNL1        0.0384
     11 C         142.1644  143.1615  170.4668 C.ar    1  UNL1        0.0145
     12 C         140.9463  143.5163  169.6666 C.ar    1  UNL1        0.0579
     13 CL        140.0979  144.6855  170.0706 Cl      1  UNL1       -0.0822
     14 C         140.5766  142.7020  168.4624 C.ar    1  UNL1        0.0160
     15 C         141.4251  141.5329  168.0584 C.ar    1  UNL1        0.0562
     16 H         141.7036  137.6266  164.2528 H       1  UNL1        0.1702
     17 C         139.4584  139.1683  163.7034 C.3     1  UNL1        0.1116
     18 C         139.0227  137.8813  163.0682 C.3     1  UNL1        0.0249
     19 C         138.0131  138.2064  162.0075 C.3     1  UNL1        0.0189
     20 C         137.8250  139.6944  161.9872 C.3     1  UNL1        0.0689
     21 N         138.7182  140.2889  163.0353 N.3     1  UNL1       -0.2926
     22 H         138.1576  140.7920  163.7231 H       1  UNL1        0.1236
@<TRIPOS>BOND
     1     1     2    2
     2     2     3   ar
     3     3     4   ar
     4    17     4    1
     5    17    18    1
     6    18    19    1
     7    19    20    1
     8    20    21    1
     9     4     5   ar
    10     5     6   ar
    11     6     7   ar
    12     7     8   ar
    13     8     9   ar
    14     9    10   ar
    15    10    11   ar
    16    11    12   ar
    17    12    13    1
    18    12    14   ar
    19    14    15   ar
    20     7     2   ar
    21    15     9   ar
    22    21    17    1
    23    15     6   ar
    24     3    16    1
    25    21    22    1
@<TRIPOS>MOLECULE
*****
 22 25 0 0 0
SMALL
GASTEIGER

@<TRIPOS>ATOM
      1 O         144.5482  137.6878  166.8440 O.2     1  UNL1       -0.2638
      2 C         143.2840  138.4940  166.7999 C.ar    1  UNL1        0.2947
      3 N         142.8779  139.3174  167.9861 N.ar    1  UNL1       -0.3062
      4 C         141.6137  140.1235  167.9420 C.ar    1  UNL1        0.1338
      5 N         140.7557  140.1064  166.7117 N.ar    1  UNL1       -0.2279
      6 C         141.1619  139.2830  165.5255 C.ar    1  UNL1        0.1247
      7 C         142.4260  138.4768  165.5696 C.ar    1  UNL1        0.2184
      8 O         142.5686  137.7662  164.2563 O.2     1  UNL1       -0.4471
      9 C         141.3925  138.1332  163.4006 C.ar    1  UNL1        0.1471
     10 C         141.0010  137.7348  162.0085 C.ar    1  UNL1        0.0384
     11 C         139.7400  138.2739  161.4008 C.ar    1  UNL1        0.0145
     12 C         138.8706  139.2114  162.1853 C.ar    1  UNL1        0.0579
     13 CL        137.6096  139.7505  161.5775 Cl      1  UNL1       -0.0822
     14 C         139.2621  139.6097  163.5773 C.ar    1  UNL1        0.0160
     15 C         140.5231  139.0706  164.1850 C.ar    1  UNL1        0.0562
     16 H         143.4410  139.3286  168.7935 H       1  UNL1        0.1702
     17 C         141.2075  140.9469  169.1282 C.3     1  UNL1        0.1116
     18 C         140.2177  142.0740  169.1218 C.3     1  UNL1        0.0249
     19 C         140.1182  142.6115  170.5187 C.3     1  UNL1        0.0189
     20 C         141.0465  141.8165  171.3884 C.3     1  UNL1        0.0689
     21 N         141.7197  140.7878  170.5290 N.3     1  UNL1       -0.2926
     22 H         141.5014  139.8527  170.8732 H       1  UNL1        0.1236
@<TRIPOS>BOND
     1     1     2    2
     2     2     3   ar
     3     3     4   ar
     4    17     4    1
     5    17    18    1
     6    18    19    1
     7    19    20    1
     8    20    21    1
     9     4     5   ar
    10     5     6   ar
    11     6     7   ar
    12     7     8   ar
    13     8     9   ar
    14     9    10   ar
    15    10    11   ar
    16    11    12   ar
    17    12    13    1
    18    12    14   ar
    19    14    15   ar
    20     7     2   ar
    21    15     9   ar
    22    21    17    1
    23    15     6   ar
    24     3    16    1
    25    21    22    1
@<TRIPOS>MOLECULE
*****
 22 25 0 0 0
SMALL
GASTEIGER

@<TRIPOS>ATOM
      1 O         137.6126  137.8525  166.7048 O.2     1  UNL1       -0.2638
      2 C         138.4003  139.1289  166.7226 C.ar    1  UNL1        0.2947
      3 N         139.1879  139.5071  167.9419 N.ar    1  UNL1       -0.3062
      4 C         139.9756  140.7835  167.9597 C.ar    1  UNL1        0.1338
      5 N         139.9758  141.6816  166.7582 N.ar    1  UNL1       -0.2279
      6 C         139.1882  141.3034  165.5390 C.ar    1  UNL1        0.1247
      7 C         138.4005  140.0270  165.5212 C.ar    1  UNL1        0.2184
      8 O         137.7247  139.9180  164.1865 O.2     1  UNL1       -0.4471
      9 C         138.0948  141.1270  163.3794 C.ar    1  UNL1        0.1471
     10 C         137.7250  141.5589  161.9914 C.ar    1  UNL1        0.0384
     11 C         138.2597  142.8470  161.4393 C.ar    1  UNL1        0.0145
     12 C         139.1642  143.7032  162.2752 C.ar    1  UNL1        0.0579
     13 CL        139.6989  144.9914  161.7230 Cl      1  UNL1       -0.0822
     14 C         139.5340  143.2713  163.6632 C.ar    1  UNL1        0.0160
     15 C         138.9993  141.9832  164.2153 C.ar    1  UNL1        0.0562
     16 H         139.1878  138.9177  168.7304 H       1  UNL1        0.1702
     17 C         140.7633  141.1618  169.1790 C.3     1  UNL1        0.1116
     18 C         141.5911  142.4017  169.3441 C.3     1  UNL1        0.0249
     19 C         142.2008  142.3729  170.7143 C.3     1  UNL1        0.0189
     20 C         141.7497  141.1152  171.3960 C.3     1  UNL1        0.0689
     21 N         140.8613  140.3667  170.4471 N.3     1  UNL1       -0.2926
     22 H         139.9342  140.2535  170.8572 H       1  UNL1        0.1236
@<TRIPOS>BOND
     1     1     2    2
     2     2     3   ar
     3     3     4   ar
     4    17     4    1
     5    17    18    1
     6    18    19    1
     7    19    20    1
     8    20    21    1
     9     4     5   ar
    10     5     6   ar
    11     6     7   ar
    12     7     8   ar
    13     8     9   ar
    14     9    10   ar
    15    10    11   ar
    16    11    12   ar
    17    12    13    1
    18    12    14   ar
    19    14    15   ar
    20     7     2   ar
    21    15     9   ar
    22    21    17    1
    23    15     6   ar
    24     3    16    1
    25    21    22    1
