@<TRIPOS>MOLECULE
*****
 29 33 0 0 0
SMALL
GASTEIGER

@<TRIPOS>ATOM
      1 C         139.6045  142.0059  162.4629 C.ar    1  UNL1        0.2326
      2 N         140.0559  141.5760  163.8272 N.ar    1  UNL1       -0.2080
      3 C         139.6897  140.1320  164.0030 C.ar    1  UNL1        0.1232
      4 C         139.8858  139.1786  165.1444 C.ar    1  UNL1        0.0741
      5 C         139.4043  137.7627  165.0300 C.ar    1  UNL1        0.0062
      6 C         138.7266  137.3001  163.7743 C.ar    1  UNL1        0.0034
      7 C         138.5305  138.2535  162.6330 C.ar    1  UNL1        0.0391
      8 C         139.0120  139.6695  162.7474 C.ar    1  UNL1        0.1649
      9 O         138.9594  140.8275  161.7955 O.2     1  UNL1       -0.4345
     10 C         139.1268  144.5588  162.5280 C.ar    1  UNL1        0.1432
     11 C         139.2916  145.9268  161.9351 C.ar    1  UNL1        0.0371
     12 C         140.0988  146.1097  160.6842 C.ar    1  UNL1        0.0031
     13 C         140.7413  144.9247  160.0262 C.ar    1  UNL1        0.0004
     14 C         140.5765  143.5568  160.6190 C.ar    1  UNL1        0.0077
     15 C         139.7693  143.3739  161.8699 C.ar    1  UNL1        0.0874
     16 C         138.8367  144.8947  165.0879 C.3     1  UNL1        0.2525
     17 O         138.3196  144.3758  163.7790 O.3     1  UNL1       -0.4713
     18 C         140.5635  139.6413  166.4001 C.2     1  UNL1        0.2474
     19 O         139.7605  140.2805  167.4939 O.2     1  UNL1       -0.2701
     20 N         142.0443  139.4646  166.5619 N.am    1  UNL1       -0.3011
     21 H         142.6548  139.0588  165.9047 H       1  UNL1        0.1497
     22 C         142.7327  140.4483  168.9544 C.3     1  UNL1        0.0878
     23 C         143.0526  141.7562  168.7905 C.3     1  UNL1        0.0919
     24 N         143.2563  142.5524  168.7406 N.3     1  UNL1       -0.2713
     25 C         143.3315  141.9267  170.1018 C.3     1  UNL1        0.0722
     26 C         142.9777  140.4804  170.2830 C.3     1  UNL1        0.0191
     27 C         142.5487  139.6597  169.1031 C.3     1  UNL1        0.0221
     28 C         142.4734  140.2853  167.7418 C.3     1  UNL1        0.0191
     29 C         142.8272  141.7317  167.5606 C.3     1  UNL1        0.0722
@<TRIPOS>BOND
     1    16    17    1
     2    17    10    1
     3    10    11   ar
     4    11    12   ar
     5    12    13   ar
     6    13    14   ar
     7    14    15   ar
     8    15     1    1
     9     1     2   ar
    10     2     3   ar
    11     3     4   ar
    12     4    18    1
    13    18    19    2
    14    18    20   am
    15    22    20    1
    16    22    23    1
    17    23    24    1
    18    24    25    1
    19    25    26    1
    20    26    27    1
    21    27    28    1
    22    28    29    1
    23     4     5   ar
    24     5     6   ar
    25     6     7   ar
    26     7     8   ar
    27     8     9   ar
    28    15    10   ar
    29     9     1   ar
    30     8     3   ar
    31    27    22    1
    32    29    24    1
    33    20    21    1
@<TRIPOS>MOLECULE
*****
 29 33 0 0 0
SMALL
GASTEIGER

@<TRIPOS>ATOM
      1 C         140.2888  141.5965  161.9484 C.ar    1  UNL1        0.2326
      2 N         140.3937  141.5701  163.4444 N.ar    1  UNL1       -0.2080
      3 C         139.8998  140.2359  163.9202 C.ar    1  UNL1        0.1232
      4 C         139.7705  139.6448  165.2927 C.ar    1  UNL1        0.0741
      5 C         139.2312  138.2555  165.4632 C.ar    1  UNL1        0.0062
      6 C         138.8210  137.4575  164.2612 C.ar    1  UNL1        0.0034
      7 C         138.9503  138.0487  162.8887 C.ar    1  UNL1        0.0391
      8 C         139.4897  139.4379  162.7182 C.ar    1  UNL1        0.1649
      9 O         139.7301  140.2787  161.4995 O.2     1  UNL1       -0.4345
     10 C         139.7977  143.9538  160.9725 C.ar    1  UNL1        0.1432
     11 C         140.1837  145.0971  160.0817 C.ar    1  UNL1        0.0371
     12 C         141.4468  145.0267  159.2758 C.ar    1  UNL1        0.0031
     13 C         142.3239  143.8128  159.3607 C.ar    1  UNL1        0.0004
     14 C         141.9379  142.6694  160.2516 C.ar    1  UNL1        0.0077
     15 C         140.6748  142.7399  161.0575 C.ar    1  UNL1        0.0874
     16 C         138.5337  144.7085  163.1133 C.3     1  UNL1        0.2525
     17 O         138.5345  144.0242  161.7785 O.3     1  UNL1       -0.4713
     18 C         140.1807  140.4429  166.4948 C.2     1  UNL1        0.2474
     19 O         140.0618  139.8477  167.8665 O.2     1  UNL1       -0.2701
     20 N         140.7097  141.8362  166.3251 N.am    1  UNL1       -0.3011
     21 H         140.8249  142.3123  165.4711 H       1  UNL1        0.1497
     22 C         141.2851  142.7985  168.7558 C.3     1  UNL1        0.0878
     23 C         142.5733  142.4791  169.0359 C.3     1  UNL1        0.0919
     24 N         143.3497  142.3084  169.2504 N.3     1  UNL1       -0.2713
     25 C         142.5329  143.0744  170.2484 C.3     1  UNL1        0.0722
     26 C         141.1084  143.4277  169.9387 C.3     1  UNL1        0.0191
     27 C         140.5006  143.0150  168.6309 C.3     1  UNL1        0.0221
     28 C         141.3174  142.2489  167.6328 C.3     1  UNL1        0.0191
     29 C         142.7420  141.8957  167.9426 C.3     1  UNL1        0.0722
@<TRIPOS>BOND
     1    16    17    1
     2    17    10    1
     3    10    11   ar
     4    11    12   ar
     5    12    13   ar
     6    13    14   ar
     7    14    15   ar
     8    15     1    1
     9     1     2   ar
    10     2     3   ar
    11     3     4   ar
    12     4    18    1
    13    18    19    2
    14    18    20   am
    15    22    20    1
    16    22    23    1
    17    23    24    1
    18    24    25    1
    19    25    26    1
    20    26    27    1
    21    27    28    1
    22    28    29    1
    23     4     5   ar
    24     5     6   ar
    25     6     7   ar
    26     7     8   ar
    27     8     9   ar
    28    15    10   ar
    29     9     1   ar
    30     8     3   ar
    31    27    22    1
    32    29    24    1
    33    20    21    1
@<TRIPOS>MOLECULE
*****
 29 33 0 0 0
SMALL
GASTEIGER

@<TRIPOS>ATOM
      1 C         141.0652  141.2006  162.0622 C.ar    1  UNL1        0.2326
      2 N         140.9995  141.2122  163.5607 N.ar    1  UNL1       -0.2080
      3 C         140.2529  142.4431  163.9823 C.ar    1  UNL1        0.1232
      4 C         139.8823  142.9786  165.3336 C.ar    1  UNL1        0.0741
      5 C         139.1160  144.2630  165.4470 C.ar    1  UNL1        0.0062
      6 C         138.7203  145.0120  164.2091 C.ar    1  UNL1        0.0034
      7 C         139.0909  144.4765  162.8578 C.ar    1  UNL1        0.0391
      8 C         139.8572  143.1921  162.7445 C.ar    1  UNL1        0.1649
      9 O         140.3592  142.4242  161.5577 O.2     1  UNL1       -0.4345
     10 C         143.1754  139.8337  161.4075 C.ar    1  UNL1        0.1432
     11 C         143.8318  138.7830  160.5619 C.ar    1  UNL1        0.0371
     12 C         143.0344  138.0484  159.5254 C.ar    1  UNL1        0.0031
     13 C         141.5806  138.3645  159.3344 C.ar    1  UNL1        0.0004
     14 C         140.9242  139.4152  160.1800 C.ar    1  UNL1        0.0077
     15 C         141.7216  140.1498  161.2165 C.ar    1  UNL1        0.0874
     16 C         144.8037  141.7535  162.0502 C.3     1  UNL1        0.2525
     17 O         143.9728  140.5684  162.4441 O.3     1  UNL1       -0.4713
     18 C         140.2780  142.2295  166.5715 C.2     1  UNL1        0.2474
     19 O         140.8940  142.9619  167.7266 O.2     1  UNL1       -0.2701
     20 N         140.0577  140.7481  166.6543 N.am    1  UNL1       -0.3011
     21 H         139.6627  140.1809  165.9533 H       1  UNL1        0.1497
     22 C         140.9291  139.9201  169.0462 C.3     1  UNL1        0.0878
     23 C         142.2167  139.5181  168.9039 C.3     1  UNL1        0.0919
     24 N         142.9987  139.2629  168.8669 N.3     1  UNL1       -0.2713
     25 C         142.3332  139.1872  170.2090 C.3     1  UNL1        0.0722
     26 C         140.9093  139.6318  170.3663 C.3     1  UNL1        0.0191
     27 C         140.1508  140.1521  169.1815 C.3     1  UNL1        0.0221
     28 C         140.8162  140.2278  167.8392 C.3     1  UNL1        0.0191
     29 C         142.2402  139.7832  167.6819 C.3     1  UNL1        0.0722
@<TRIPOS>BOND
     1    16    17    1
     2    17    10    1
     3    10    11   ar
     4    11    12   ar
     5    12    13   ar
     6    13    14   ar
     7    14    15   ar
     8    15     1    1
     9     1     2   ar
    10     2     3   ar
    11     3     4   ar
    12     4    18    1
    13    18    19    2
    14    18    20   am
    15    22    20    1
    16    22    23    1
    17    23    24    1
    18    24    25    1
    19    25    26    1
    20    26    27    1
    21    27    28    1
    22    28    29    1
    23     4     5   ar
    24     5     6   ar
    25     6     7   ar
    26     7     8   ar
    27     8     9   ar
    28    15    10   ar
    29     9     1   ar
    30     8     3   ar
    31    27    22    1
    32    29    24    1
    33    20    21    1
@<TRIPOS>MOLECULE
*****
 29 33 0 0 0
SMALL
GASTEIGER

@<TRIPOS>ATOM
      1 C         141.3478  140.5372  162.2607 C.ar    1  UNL1        0.2326
      2 N         141.2084  140.7673  163.7363 N.ar    1  UNL1       -0.2080
      3 C         140.3284  139.6874  164.2927 C.ar    1  UNL1        0.1232
      4 C         139.8432  139.4054  165.6838 C.ar    1  UNL1        0.0741
      5 C         138.9535  138.2259  165.9431 C.ar    1  UNL1        0.0062
      6 C         138.5491  137.3285  164.8113 C.ar    1  UNL1        0.0034
      7 C         139.0343  137.6105  163.4202 C.ar    1  UNL1        0.0391
      8 C         139.9240  138.7900  163.1610 C.ar    1  UNL1        0.1649
      9 O         140.5540  139.3151  161.9051 O.2     1  UNL1       -0.4345
     10 C         143.6399  141.3088  161.3114 C.ar    1  UNL1        0.1432
     11 C         144.4337  142.1526  160.3586 C.ar    1  UNL1        0.0371
     12 C         143.7293  143.0686  159.4022 C.ar    1  UNL1        0.0031
     13 C         142.2310  143.1408  159.3987 C.ar    1  UNL1        0.0004
     14 C         141.4372  142.2971  160.3514 C.ar    1  UNL1        0.0077
     15 C         142.1416  141.3811  161.3078 C.ar    1  UNL1        0.0874
     16 C         145.1707  140.9634  163.3820 C.3     1  UNL1        0.2525
     17 O         144.3443  140.3927  162.2678 O.3     1  UNL1       -0.4713
     18 C         140.2476  140.3029  166.8156 C.2     1  UNL1        0.2474
     19 O         140.1534  139.8144  168.2306 O.2     1  UNL1       -0.2701
     20 N         140.7463  141.6890  166.5322 N.am    1  UNL1       -0.3011
     21 H         140.8439  142.0991  165.6426 H       1  UNL1        0.1497
     22 C         141.3237  142.8494  168.8744 C.3     1  UNL1        0.0878
     23 C         142.6247  142.5907  169.1577 C.3     1  UNL1        0.0919
     24 N         143.4088  142.4601  169.3724 N.3     1  UNL1       -0.2713
     25 C         142.5819  143.2747  170.3224 C.3     1  UNL1        0.0722
     26 C         141.1432  143.5608  170.0091 C.3     1  UNL1        0.0191
     27 C         140.5313  143.0323  168.7457 C.3     1  UNL1        0.0221
     28 C         141.3582  142.2175  167.7956 C.3     1  UNL1        0.0191
     29 C         142.7969  141.9314  168.1090 C.3     1  UNL1        0.0722
@<TRIPOS>BOND
     1    16    17    1
     2    17    10    1
     3    10    11   ar
     4    11    12   ar
     5    12    13   ar
     6    13    14   ar
     7    14    15   ar
     8    15     1    1
     9     1     2   ar
    10     2     3   ar
    11     3     4   ar
    12     4    18    1
    13    18    19    2
    14    18    20   am
    15    22    20    1
    16    22    23    1
    17    23    24    1
    18    24    25    1
    19    25    26    1
    20    26    27    1
    21    27    28    1
    22    28    29    1
    23     4     5   ar
    24     5     6   ar
    25     6     7   ar
    26     7     8   ar
    27     8     9   ar
    28    15    10   ar
    29     9     1   ar
    30     8     3   ar
    31    27    22    1
    32    29    24    1
    33    20    21    1
@<TRIPOS>MOLECULE
*****
 29 33 0 0 0
SMALL
GASTEIGER

@<TRIPOS>ATOM
      1 C         139.8017  142.1539  162.5965 C.ar    1  UNL1        0.2326
      2 N         140.3289  141.9283  163.9825 N.ar    1  UNL1       -0.2080
      3 C         139.9291  140.5476  164.4114 C.ar    1  UNL1        0.1232
      4 C         140.1701  139.7809  165.6779 C.ar    1  UNL1        0.0741
      5 C         139.6368  138.3865  165.8235 C.ar    1  UNL1        0.0062
      6 C         138.8625  137.7589  164.7026 C.ar    1  UNL1        0.0034
      7 C         138.6215  138.5256  163.4361 C.ar    1  UNL1        0.0391
      8 C         139.1548  139.9200  163.2905 C.ar    1  UNL1        0.1649
      9 O         139.0760  140.9127  162.1688 O.2     1  UNL1       -0.4345
     10 C         140.5576  143.3235  160.4031 C.ar    1  UNL1        0.1432
     11 C         140.7264  144.5712  159.5878 C.ar    1  UNL1        0.0371
     12 C         140.3080  145.8971  160.1506 C.ar    1  UNL1        0.0031
     13 C         139.7208  145.9753  161.5287 C.ar    1  UNL1        0.0004
     14 C         139.5520  144.7277  162.3439 C.ar    1  UNL1        0.0077
     15 C         139.9705  143.4017  161.7812 C.ar    1  UNL1        0.0874
     16 C         142.4322  141.6522  159.7373 C.3     1  UNL1        0.2525
     17 O         140.9761  141.9974  159.8403 O.3     1  UNL1       -0.4713
     18 C         140.9445  140.4086  166.7989 C.2     1  UNL1        0.2474
     19 O         141.1744  139.6467  168.0703 O.2     1  UNL1       -0.2701
     20 N         141.4888  141.7982  166.6483 N.am    1  UNL1       -0.3011
     21 H         141.3915  142.3761  165.8573 H       1  UNL1        0.1497
     22 C         142.7719  142.4279  168.9117 C.3     1  UNL1        0.0878
     23 C         141.8768  143.0068  169.7505 C.3     1  UNL1        0.0919
     24 N         141.3707  143.3631  170.2935 N.3     1  UNL1       -0.2713
     25 C         142.7963  143.1852  170.7246 C.3     1  UNL1        0.0722
     26 C         143.7861  142.5450  169.7970 C.3     1  UNL1        0.0191
     27 C         143.3503  142.0827  168.4383 C.3     1  UNL1        0.0221
     28 C         141.9246  142.2605  168.0070 C.3     1  UNL1        0.0191
     29 C         140.9348  142.9007  168.9346 C.3     1  UNL1        0.0722
@<TRIPOS>BOND
     1    16    17    1
     2    17    10    1
     3    10    11   ar
     4    11    12   ar
     5    12    13   ar
     6    13    14   ar
     7    14    15   ar
     8    15     1    1
     9     1     2   ar
    10     2     3   ar
    11     3     4   ar
    12     4    18    1
    13    18    19    2
    14    18    20   am
    15    22    20    1
    16    22    23    1
    17    23    24    1
    18    24    25    1
    19    25    26    1
    20    26    27    1
    21    27    28    1
    22    28    29    1
    23     4     5   ar
    24     5     6   ar
    25     6     7   ar
    26     7     8   ar
    27     8     9   ar
    28    15    10   ar
    29     9     1   ar
    30     8     3   ar
    31    27    22    1
    32    29    24    1
    33    20    21    1
@<TRIPOS>MOLECULE
*****
 29 33 0 0 0
SMALL
GASTEIGER

@<TRIPOS>ATOM
      1 C         141.4285  138.6792  160.3034 C.ar    1  UNL1        0.2326
      2 N         142.0076  137.7766  159.2547 N.ar    1  UNL1       -0.2080
      3 C         142.3707  138.6186  158.0676 C.ar    1  UNL1        0.1232
      4 C         142.9785  138.2734  156.7404 C.ar    1  UNL1        0.0741
      5 C         143.2316  139.3512  155.7283 C.ar    1  UNL1        0.0062
      6 C         142.8770  140.7742  156.0435 C.ar    1  UNL1        0.0034
      7 C         142.2692  141.1194  157.3707 C.ar    1  UNL1        0.0391
      8 C         142.0161  140.0416  158.3827 C.ar    1  UNL1        0.1649
      9 O         141.4338  140.0790  159.7645 O.2     1  UNL1       -0.4345
     10 C         141.9078  137.9610  162.7539 C.ar    1  UNL1        0.1432
     11 C         141.4108  137.5381  164.1045 C.ar    1  UNL1        0.0371
     12 C         139.9374  137.4103  164.3552 C.ar    1  UNL1        0.0031
     13 C         138.9611  137.7055  163.2554 C.ar    1  UNL1        0.0004
     14 C         139.4581  138.1285  161.9048 C.ar    1  UNL1        0.0077
     15 C         140.9314  138.2562  161.6541 C.ar    1  UNL1        0.0874
     16 C         144.0917  139.3656  162.8420 C.3     1  UNL1        0.2525
     17 O         143.3812  138.0887  162.5031 O.3     1  UNL1       -0.4713
     18 C         143.3331  136.8504  156.4252 C.2     1  UNL1        0.2474
     19 O         144.6178  136.5367  155.7174 O.2     1  UNL1       -0.2701
     20 N         142.4030  135.7411  156.8180 N.am    1  UNL1       -0.3011
     21 H         141.5415  135.8445  157.2831 H       1  UNL1        0.1497
     22 C         143.5009  133.4303  156.0301 C.3     1  UNL1        0.0878
     23 C         144.2391  132.9473  157.0604 C.3     1  UNL1        0.0919
     24 N         144.6992  132.6147  157.6567 N.3     1  UNL1       -0.2713
     25 C         144.6228  131.8528  156.3669 C.3     1  UNL1        0.0722
     26 C         143.8064  132.3869  155.2275 C.3     1  UNL1        0.0191
     27 C         143.0665  133.6830  155.3779 C.3     1  UNL1        0.0221
     28 C         143.1429  134.4450  156.6677 C.3     1  UNL1        0.0191
     29 C         143.9593  133.9109  157.8071 C.3     1  UNL1        0.0722
@<TRIPOS>BOND
     1    16    17    1
     2    17    10    1
     3    10    11   ar
     4    11    12   ar
     5    12    13   ar
     6    13    14   ar
     7    14    15   ar
     8    15     1    1
     9     1     2   ar
    10     2     3   ar
    11     3     4   ar
    12     4    18    1
    13    18    19    2
    14    18    20   am
    15    22    20    1
    16    22    23    1
    17    23    24    1
    18    24    25    1
    19    25    26    1
    20    26    27    1
    21    27    28    1
    22    28    29    1
    23     4     5   ar
    24     5     6   ar
    25     6     7   ar
    26     7     8   ar
    27     8     9   ar
    28    15    10   ar
    29     9     1   ar
    30     8     3   ar
    31    27    22    1
    32    29    24    1
    33    20    21    1
@<TRIPOS>MOLECULE
*****
 29 33 0 0 0
SMALL
GASTEIGER

@<TRIPOS>ATOM
      1 C         141.8451  143.0015  161.1049 C.ar    1  UNL1        0.2326
      2 N         141.3982  142.2171  162.3028 N.ar    1  UNL1       -0.2080
      3 C         142.3026  142.5644  163.4481 C.ar    1  UNL1        0.1232
      4 C         142.3401  142.1000  164.8739 C.ar    1  UNL1        0.0741
      5 C         143.3834  142.6347  165.8096 C.ar    1  UNL1        0.0062
      6 C         144.3892  143.6337  165.3195 C.ar    1  UNL1        0.0034
      7 C         144.3517  144.0981  163.8937 C.ar    1  UNL1        0.0391
      8 C         143.3083  143.5635  162.9580 C.ar    1  UNL1        0.1649
      9 O         143.0256  143.8336  161.5099 O.2     1  UNL1       -0.4345
     10 C         139.7764  143.3251  159.5667 C.ar    1  UNL1        0.1432
     11 C         139.1524  143.2846  158.2033 C.ar    1  UNL1        0.0371
     12 C         139.9729  142.8799  157.0147 C.ar    1  UNL1        0.0031
     13 C         141.4175  142.5157  157.1895 C.ar    1  UNL1        0.0004
     14 C         142.0415  142.5562  158.5528 C.ar    1  UNL1        0.0077
     15 C         141.2210  142.9609  159.7415 C.ar    1  UNL1        0.0874
     16 C         138.0693  142.7265  161.4315 C.3     1  UNL1        0.2525
     17 O         138.9559  143.7299  160.7555 O.3     1  UNL1       -0.4713
     18 C         141.3343  141.1009  165.3640 C.2     1  UNL1        0.2474
     19 O         141.7106  140.1222  166.4365 O.2     1  UNL1       -0.2701
     20 N         139.9522  141.0805  164.7814 N.am    1  UNL1       -0.3011
     21 H         139.6111  141.6785  164.0776 H       1  UNL1        0.1497
     22 C         138.5776  139.1300  165.9945 C.3     1  UNL1        0.0878
     23 C         138.8254  137.9723  165.3326 C.3     1  UNL1        0.0919
     24 N         138.9453  137.2461  164.9636 N.3     1  UNL1       -0.2713
     25 C         138.0309  137.2493  166.1526 C.3     1  UNL1        0.0722
     26 C         137.7569  138.5296  166.8846 C.3     1  UNL1        0.0191
     27 C         138.3973  139.8067  166.4275 C.3     1  UNL1        0.0221
     28 C         139.3118  139.8035  165.2385 C.3     1  UNL1        0.0191
     29 C         139.5858  138.5232  164.5065 C.3     1  UNL1        0.0722
@<TRIPOS>BOND
     1    16    17    1
     2    17    10    1
     3    10    11   ar
     4    11    12   ar
     5    12    13   ar
     6    13    14   ar
     7    14    15   ar
     8    15     1    1
     9     1     2   ar
    10     2     3   ar
    11     3     4   ar
    12     4    18    1
    13    18    19    2
    14    18    20   am
    15    22    20    1
    16    22    23    1
    17    23    24    1
    18    24    25    1
    19    25    26    1
    20    26    27    1
    21    27    28    1
    22    28    29    1
    23     4     5   ar
    24     5     6   ar
    25     6     7   ar
    26     7     8   ar
    27     8     9   ar
    28    15    10   ar
    29     9     1   ar
    30     8     3   ar
    31    27    22    1
    32    29    24    1
    33    20    21    1
@<TRIPOS>MOLECULE
*****
 29 33 0 0 0
SMALL
GASTEIGER

@<TRIPOS>ATOM
      1 C         141.4828  138.7087  160.3927 C.ar    1  UNL1        0.2326
      2 N         142.0321  137.8099  159.3248 N.ar    1  UNL1       -0.2080
      3 C         142.3286  138.6509  158.1185 C.ar    1  UNL1        0.1232
      4 C         142.8846  138.3082  156.7682 C.ar    1  UNL1        0.0741
      5 C         143.0746  139.3840  155.7403 C.ar    1  UNL1        0.0062
      6 C         142.7085  140.8024  156.0627 C.ar    1  UNL1        0.0034
      7 C         142.1524  141.1451  157.4131 C.ar    1  UNL1        0.0391
      8 C         141.9625  140.0693  158.4410 C.ar    1  UNL1        0.1649
      9 O         141.4398  140.1050  159.8465 O.2     1  UNL1       -0.4345
     10 C         139.5966  138.0804  162.0654 C.ar    1  UNL1        0.1432
     11 C         139.1659  137.6571  163.4384 C.ar    1  UNL1        0.0371
     12 C         140.1906  137.4389  164.5119 C.ar    1  UNL1        0.0031
     13 C         141.6460  137.6440  164.2124 C.ar    1  UNL1        0.0004
     14 C         142.0767  138.0672  162.8393 C.ar    1  UNL1        0.0077
     15 C         141.0521  138.2854  161.7658 C.ar    1  UNL1        0.0874
     16 C         137.7581  139.5585  160.9768 C.3     1  UNL1        0.2525
     17 O         138.5720  138.2986  160.9918 O.3     1  UNL1       -0.4713
     18 C         143.2507  136.8897  156.4458 C.2     1  UNL1        0.2474
     19 O         144.5353  136.5905  155.7315 O.2     1  UNL1       -0.2701
     20 N         142.3322  135.7705  156.8377 N.am    1  UNL1       -0.3011
     21 H         141.4717  135.8642  157.3067 H       1  UNL1        0.1497
     22 C         143.4476  133.4729  156.0359 C.3     1  UNL1        0.0878
     23 C         144.1948  132.9928  157.0610 C.3     1  UNL1        0.0919
     24 N         144.6607  132.6621  157.6539 N.3     1  UNL1       -0.2713
     25 C         144.5854  131.9044  156.3616 C.3     1  UNL1        0.0722
     26 C         143.7590  132.4354  155.2279 C.3     1  UNL1        0.0191
     27 C         143.0080  133.7241  155.3866 C.3     1  UNL1        0.0221
     28 C         143.0832  134.4818  156.6790 C.3     1  UNL1        0.0191
     29 C         143.9096  133.9508  157.8127 C.3     1  UNL1        0.0722
@<TRIPOS>BOND
     1    16    17    1
     2    17    10    1
     3    10    11   ar
     4    11    12   ar
     5    12    13   ar
     6    13    14   ar
     7    14    15   ar
     8    15     1    1
     9     1     2   ar
    10     2     3   ar
    11     3     4   ar
    12     4    18    1
    13    18    19    2
    14    18    20   am
    15    22    20    1
    16    22    23    1
    17    23    24    1
    18    24    25    1
    19    25    26    1
    20    26    27    1
    21    27    28    1
    22    28    29    1
    23     4     5   ar
    24     5     6   ar
    25     6     7   ar
    26     7     8   ar
    27     8     9   ar
    28    15    10   ar
    29     9     1   ar
    30     8     3   ar
    31    27    22    1
    32    29    24    1
    33    20    21    1
@<TRIPOS>MOLECULE
*****
 29 33 0 0 0
SMALL
GASTEIGER

@<TRIPOS>ATOM
      1 C         142.6639  138.7461  160.2822 C.ar    1  UNL1        0.2326
      2 N         143.0240  137.6482  159.3257 N.ar    1  UNL1       -0.2080
      3 C         142.6172  138.0814  157.9484 C.ar    1  UNL1        0.1232
      4 C         142.7247  137.4087  156.6120 C.ar    1  UNL1        0.0741
      5 C         142.2206  138.1016  155.3808 C.ar    1  UNL1        0.0062
      6 C         141.6090  139.4672  155.4861 C.ar    1  UNL1        0.0034
      7 C         141.5016  140.1399  156.8226 C.ar    1  UNL1        0.0391
      8 C         142.0057  139.4469  158.0537 C.ar    1  UNL1        0.1649
      9 O         142.0345  139.8578  159.4960 O.2     1  UNL1       -0.4345
     10 C         141.9275  138.0246  162.6670 C.ar    1  UNL1        0.1432
     11 C         142.1565  138.0128  164.1493 C.ar    1  UNL1        0.0371
     12 C         143.3507  138.7109  164.7293 C.ar    1  UNL1        0.0031
     13 C         144.3161  139.4207  163.8269 C.ar    1  UNL1        0.0004
     14 C         144.0871  139.4324  162.3445 C.ar    1  UNL1        0.0077
     15 C         142.8929  138.7344  161.7646 C.ar    1  UNL1        0.0874
     16 C         139.4097  138.0297  162.0263 C.3     1  UNL1        0.2525
     17 O         140.7332  137.3265  162.0870 O.3     1  UNL1       -0.4713
     18 C         143.3363  136.0431  156.5067 C.2     1  UNL1        0.2474
     19 O         144.3700  135.7632  155.4565 O.2     1  UNL1       -0.2701
     20 N         142.9141  134.9574  157.4517 N.am    1  UNL1       -0.3011
     21 H         142.2470  135.0420  158.1708 H       1  UNL1        0.1497
     22 C         144.2962  132.7490  156.8364 C.3     1  UNL1        0.0878
     23 C         143.7221  132.1899  155.7420 C.3     1  UNL1        0.0919
     24 N         143.4086  131.8141  155.0799 N.3     1  UNL1       -0.2713
     25 C         144.6081  131.1699  155.7094 C.3     1  UNL1        0.0722
     26 C         145.2429  131.7882  156.9197 C.3     1  UNL1        0.0191
     27 C         144.6783  133.0507  157.5004 C.3     1  UNL1        0.0221
     28 C         143.4788  133.6949  156.8710 C.3     1  UNL1        0.0191
     29 C         142.8439  133.0766  155.6607 C.3     1  UNL1        0.0722
@<TRIPOS>BOND
     1    16    17    1
     2    17    10    1
     3    10    11   ar
     4    11    12   ar
     5    12    13   ar
     6    13    14   ar
     7    14    15   ar
     8    15     1    1
     9     1     2   ar
    10     2     3   ar
    11     3     4   ar
    12     4    18    1
    13    18    19    2
    14    18    20   am
    15    22    20    1
    16    22    23    1
    17    23    24    1
    18    24    25    1
    19    25    26    1
    20    26    27    1
    21    27    28    1
    22    28    29    1
    23     4     5   ar
    24     5     6   ar
    25     6     7   ar
    26     7     8   ar
    27     8     9   ar
    28    15    10   ar
    29     9     1   ar
    30     8     3   ar
    31    27    22    1
    32    29    24    1
    33    20    21    1
