@<TRIPOS>MOLECULE
*****
 26 28 0 0 0
SMALL
GASTEIGER

@<TRIPOS>ATOM
      1 C         143.6250  139.7275  164.2738 C.3     1  UNL1        0.0031
      2 C         142.7824  139.5188  163.0505 C.3     1  UNL1        0.0174
      3 C         141.2939  139.3852  163.1790 C.3     1  UNL1        0.0721
      4 N         140.6480  139.4603  164.5307 N.3     1  UNL1       -0.2724
      5 C         141.4906  139.6690  165.7540 C.3     1  UNL1        0.0721
      6 C         142.9791  139.8026  165.6255 C.3     1  UNL1        0.0174
      7 C         145.1135  139.8611  164.1453 C.3     1  UNL1        0.0048
      8 C         145.7285  141.2099  163.9162 C.3     1  UNL1        0.0265
      9 C         143.4553  143.9236  162.1222 C.ar    1  UNL1        0.1384
     10 C         143.0965  144.8044  163.2821 C.ar    1  UNL1        0.0369
     11 C         143.6150  144.4870  164.6534 C.ar    1  UNL1        0.0028
     12 C         144.4923  143.2888  164.8648 C.ar    1  UNL1       -0.0041
     13 C         144.8511  142.4081  163.7048 C.ar    1  UNL1       -0.0192
     14 C         144.3326  142.7255  162.3336 C.ar    1  UNL1        0.0326
     15 O         142.9368  144.2410  160.7509 O.3     1  UNL1       -0.4724
     16 C         141.8084  143.4403  160.1718 C.3     1  UNL1        0.2434
     17 F         140.5743  142.3991  162.2073 F       1  UNL1       -0.2302
     18 C         140.5503  143.2363  160.9628 C.3     1  UNL1        0.2403
     19 C         139.1595  139.3267  164.6592 C.3     1  UNL1        0.0768
     20 C         138.3637  140.4110  165.3231 C.3     1  UNL1        0.0437
     21 C         138.5199  141.8351  164.8789 C.ar    1  UNL1       -0.0208
     22 C         137.6053  142.3989  163.8321 C.ar    1  UNL1       -0.0042
     23 C         137.7615  143.8231  163.3879 C.ar    1  UNL1       -0.0003
     24 C         138.8323  144.6835  163.9904 C.ar    1  UNL1       -0.0000
     25 C         139.7470  144.1198  165.0371 C.ar    1  UNL1       -0.0003
     26 C         139.5907  142.6956  165.4814 C.ar    1  UNL1       -0.0042
@<TRIPOS>BOND
     1    17    18    1
     2    18    16    1
     3    16    15    1
     4    15     9    1
     5     9    10   ar
     6    10    11   ar
     7    11    12   ar
     8    12    13   ar
     9    13     8    1
    10     8     7    1
    11     7     1    1
    12     1     2    1
    13     2     3    1
    14     3     4    1
    15     4    19    1
    16    19    20    1
    17    20    21    1
    18    21    22   ar
    19    22    23   ar
    20    23    24   ar
    21    24    25   ar
    22    25    26   ar
    23     4     5    1
    24     5     6    1
    25    13    14   ar
    26    14     9   ar
    27     6     1    1
    28    26    21   ar
@<TRIPOS>MOLECULE
*****
 26 28 0 0 0
SMALL
GASTEIGER

@<TRIPOS>ATOM
      1 C         139.3594  137.5614  164.5559 C.3     1  UNL1        0.0031
      2 C         140.8242  137.3391  164.7903 C.3     1  UNL1        0.0174
      3 C         141.7961  137.4886  163.6577 C.3     1  UNL1        0.0721
      4 N         141.3032  137.8605  162.2906 N.3     1  UNL1       -0.2724
      5 C         139.8385  138.0828  162.0562 C.3     1  UNL1        0.0721
      6 C         138.8666  137.9333  163.1889 C.3     1  UNL1        0.0174
      7 C         138.3874  137.4119  165.6886 C.3     1  UNL1        0.0048
      8 C         137.9063  138.6244  166.4291 C.3     1  UNL1        0.0265
      9 C         139.6424  142.1000  165.6187 C.ar    1  UNL1        0.1384
     10 C         140.5626  142.2383  166.7951 C.ar    1  UNL1        0.0369
     11 C         140.5974  141.1720  167.8496 C.ar    1  UNL1        0.0028
     12 C         139.7120  139.9674  167.7276 C.ar    1  UNL1       -0.0041
     13 C         138.7918  139.8291  166.5511 C.ar    1  UNL1       -0.0192
     14 C         138.7570  140.8954  165.4967 C.ar    1  UNL1        0.0326
     15 O         139.6076  143.1663  164.5643 O.3     1  UNL1       -0.4724
     16 C         140.6807  143.2214  163.5177 C.3     1  UNL1        0.2434
     17 F         141.6913  140.8281  163.5524 F       1  UNL1       -0.2302
     18 C         141.0868  141.9721  162.7934 C.3     1  UNL1        0.2403
     19 C         142.2753  138.0100  161.1579 C.3     1  UNL1        0.0768
     20 C         143.7386  138.1765  161.4424 C.3     1  UNL1        0.0437
     21 C         144.2492  139.4651  162.0156 C.ar    1  UNL1       -0.0208
     22 C         144.2453  140.7112  161.1804 C.ar    1  UNL1       -0.0042
     23 C         144.7560  141.9998  161.7536 C.ar    1  UNL1       -0.0003
     24 C         145.2706  142.0425  163.1619 C.ar    1  UNL1       -0.0000
     25 C         145.2746  140.7965  163.9970 C.ar    1  UNL1       -0.0003
     26 C         144.7639  139.5078  163.4239 C.ar    1  UNL1       -0.0042
@<TRIPOS>BOND
     1    17    18    1
     2    18    16    1
     3    16    15    1
     4    15     9    1
     5     9    10   ar
     6    10    11   ar
     7    11    12   ar
     8    12    13   ar
     9    13     8    1
    10     8     7    1
    11     7     1    1
    12     1     2    1
    13     2     3    1
    14     3     4    1
    15     4    19    1
    16    19    20    1
    17    20    21    1
    18    21    22   ar
    19    22    23   ar
    20    23    24   ar
    21    24    25   ar
    22    25    26   ar
    23     4     5    1
    24     5     6    1
    25    13    14   ar
    26    14     9   ar
    27     6     1    1
    28    26    21   ar
@<TRIPOS>MOLECULE
*****
 26 28 0 0 0
SMALL
GASTEIGER

@<TRIPOS>ATOM
      1 C         138.5024  141.9236  163.8684 C.3     1  UNL1        0.0031
      2 C         139.1932  141.6766  162.5601 C.3     1  UNL1        0.0174
      3 C         139.5766  140.2809  162.1663 C.3     1  UNL1        0.0721
      4 N         139.2692  139.1324  163.0808 N.3     1  UNL1       -0.2724
      5 C         138.5784  139.3794  164.3891 C.3     1  UNL1        0.0721
      6 C         138.1950  140.7751  164.7829 C.3     1  UNL1        0.0174
      7 C         138.1189  143.3193  164.2623 C.3     1  UNL1        0.0048
      8 C         139.0845  144.1747  165.0277 C.3     1  UNL1        0.0265
      9 C         142.9922  143.8146  164.4361 C.ar    1  UNL1        0.1384
     10 C         143.3565  142.8513  165.5266 C.ar    1  UNL1        0.0369
     11 C         142.2967  142.3292  166.4509 C.ar    1  UNL1        0.0028
     12 C         140.8727  142.7703  166.2846 C.ar    1  UNL1       -0.0041
     13 C         140.5085  143.7335  165.1940 C.ar    1  UNL1       -0.0192
     14 C         141.5683  144.2557  164.2698 C.ar    1  UNL1        0.0326
     15 O         144.0520  144.3368  163.5118 O.3     1  UNL1       -0.4724
     16 C         144.3086  143.6522  162.2021 C.3     1  UNL1        0.2434
     17 F         146.0127  142.0144  163.2810 F       1  UNL1       -0.2302
     18 C         145.0681  142.3592  162.1678 C.3     1  UNL1        0.2403
     19 C         139.6527  137.7367  162.6869 C.3     1  UNL1        0.0768
     20 C         140.7760  137.0393  163.3953 C.3     1  UNL1        0.0437
     21 C         141.9890  137.8123  163.8206 C.ar    1  UNL1       -0.0208
     22 C         142.2349  138.0812  165.2757 C.ar    1  UNL1       -0.0042
     23 C         143.4479  138.8542  165.7011 C.ar    1  UNL1       -0.0003
     24 C         144.4152  139.3584  164.6714 C.ar    1  UNL1       -0.0000
     25 C         144.1694  139.0895  163.2163 C.ar    1  UNL1       -0.0003
     26 C         142.9563  138.3165  162.7909 C.ar    1  UNL1       -0.0042
@<TRIPOS>BOND
     1    17    18    1
     2    18    16    1
     3    16    15    1
     4    15     9    1
     5     9    10   ar
     6    10    11   ar
     7    11    12   ar
     8    12    13   ar
     9    13     8    1
    10     8     7    1
    11     7     1    1
    12     1     2    1
    13     2     3    1
    14     3     4    1
    15     4    19    1
    16    19    20    1
    17    20    21    1
    18    21    22   ar
    19    22    23   ar
    20    23    24   ar
    21    24    25   ar
    22    25    26   ar
    23     4     5    1
    24     5     6    1
    25    13    14   ar
    26    14     9   ar
    27     6     1    1
    28    26    21   ar
@<TRIPOS>MOLECULE
*****
 26 28 0 0 0
SMALL
GASTEIGER

@<TRIPOS>ATOM
      1 C         143.9439  142.8552  163.4140 C.3     1  UNL1        0.0031
      2 C         143.3582  142.6322  162.0512 C.3     1  UNL1        0.0174
      3 C         142.2663  143.5293  161.5483 C.3     1  UNL1        0.0721
      4 N         141.7600  144.6492  162.4081 N.3     1  UNL1       -0.2724
      5 C         142.3457  144.8722  163.7709 C.3     1  UNL1        0.0721
      6 C         143.4376  143.9751  164.2739 C.3     1  UNL1        0.0174
      7 C         145.0359  141.9581  163.9170 C.3     1  UNL1        0.0048
      8 C         145.0735  140.5172  163.5021 C.3     1  UNL1        0.0265
      9 C         142.0148  137.9971  163.2928 C.ar    1  UNL1        0.1384
     10 C         141.7676  137.7299  164.7479 C.ar    1  UNL1        0.0369
     11 C         142.6224  138.3917  165.7878 C.ar    1  UNL1        0.0028
     12 C         143.7243  139.3208  165.3726 C.ar    1  UNL1       -0.0041
     13 C         143.9715  139.5880  163.9175 C.ar    1  UNL1       -0.0192
     14 C         143.1168  138.9262  162.8776 C.ar    1  UNL1        0.0326
     15 O         141.1601  137.3353  162.2529 O.3     1  UNL1       -0.4724
     16 C         139.9225  138.0195  161.7529 C.3     1  UNL1        0.2434
     17 F         138.5636  138.2342  163.9569 F       1  UNL1       -0.2302
     18 C         138.6310  137.8751  162.5020 C.3     1  UNL1        0.2403
     19 C         140.6680  145.5463  161.9051 C.3     1  UNL1        0.0768
     20 C         139.2850  145.4366  162.4754 C.3     1  UNL1        0.0437
     21 C         138.7003  144.0872  162.7704 C.ar    1  UNL1       -0.0208
     22 C         138.3127  143.7284  164.1744 C.ar    1  UNL1       -0.0042
     23 C         137.7279  142.3790  164.4694 C.ar    1  UNL1       -0.0003
     24 C         137.5307  141.3883  163.3605 C.ar    1  UNL1       -0.0000
     25 C         137.9183  141.7470  161.9566 C.ar    1  UNL1       -0.0003
     26 C         138.5031  143.0965  161.6615 C.ar    1  UNL1       -0.0042
@<TRIPOS>BOND
     1    17    18    1
     2    18    16    1
     3    16    15    1
     4    15     9    1
     5     9    10   ar
     6    10    11   ar
     7    11    12   ar
     8    12    13   ar
     9    13     8    1
    10     8     7    1
    11     7     1    1
    12     1     2    1
    13     2     3    1
    14     3     4    1
    15     4    19    1
    16    19    20    1
    17    20    21    1
    18    21    22   ar
    19    22    23   ar
    20    23    24   ar
    21    24    25   ar
    22    25    26   ar
    23     4     5    1
    24     5     6    1
    25    13    14   ar
    26    14     9   ar
    27     6     1    1
    28    26    21   ar
@<TRIPOS>MOLECULE
*****
 26 28 0 0 0
SMALL
GASTEIGER

@<TRIPOS>ATOM
      1 C         142.1046  144.2123  163.5612 C.3     1  UNL1        0.0031
      2 C         140.9073  144.3282  164.4573 C.3     1  UNL1        0.0174
      3 C         139.5779  143.8011  164.0045 C.3     1  UNL1        0.0721
      4 N         139.4459  143.1583  162.6557 N.3     1  UNL1       -0.2724
      5 C         140.6432  143.0424  161.7596 C.3     1  UNL1        0.0721
      6 C         141.9725  143.5695  162.2124 C.3     1  UNL1        0.0174
      7 C         143.4340  144.7394  164.0139 C.3     1  UNL1        0.0048
      8 C         144.2716  143.9413  164.9686 C.3     1  UNL1        0.0265
      9 C         143.2453  140.1858  165.7386 C.ar    1  UNL1        0.1384
     10 C         144.1776  139.4445  164.8269 C.ar    1  UNL1        0.0369
     11 C         145.1413  140.2022  163.9625 C.ar    1  UNL1        0.0028
     12 C         145.1727  141.7011  164.0097 C.ar    1  UNL1       -0.0041
     13 C         144.2403  142.4423  164.9213 C.ar    1  UNL1       -0.0192
     14 C         143.2766  141.6847  165.7858 C.ar    1  UNL1        0.0326
     15 O         142.2816  139.4282  166.6031 O.3     1  UNL1       -0.4724
     16 C         142.2508  139.6710  168.0829 C.3     1  UNL1        0.2434
     17 F         139.9376  140.8397  167.9000 F       1  UNL1       -0.2302
     18 C         141.1857  140.5439  168.6777 C.3     1  UNL1        0.2403
     19 C         138.1164  142.6312  162.2030 C.3     1  UNL1        0.0768
     20 C         137.3153  141.7414  163.1065 C.3     1  UNL1        0.0437
     21 C         137.8895  140.4380  163.5770 C.ar    1  UNL1       -0.0208
     22 C         138.1629  139.3399  162.5923 C.ar    1  UNL1       -0.0042
     23 C         138.7370  138.0364  163.0628 C.ar    1  UNL1       -0.0003
     24 C         139.0378  137.8310  164.5179 C.ar    1  UNL1       -0.0000
     25 C         138.7644  138.9290  165.5025 C.ar    1  UNL1       -0.0003
     26 C         138.1902  140.2325  165.0321 C.ar    1  UNL1       -0.0042
@<TRIPOS>BOND
     1    17    18    1
     2    18    16    1
     3    16    15    1
     4    15     9    1
     5     9    10   ar
     6    10    11   ar
     7    11    12   ar
     8    12    13   ar
     9    13     8    1
    10     8     7    1
    11     7     1    1
    12     1     2    1
    13     2     3    1
    14     3     4    1
    15     4    19    1
    16    19    20    1
    17    20    21    1
    18    21    22   ar
    19    22    23   ar
    20    23    24   ar
    21    24    25   ar
    22    25    26   ar
    23     4     5    1
    24     5     6    1
    25    13    14   ar
    26    14     9   ar
    27     6     1    1
    28    26    21   ar
@<TRIPOS>MOLECULE
*****
 26 28 0 0 0
SMALL
GASTEIGER

@<TRIPOS>ATOM
      1 C         138.3915  143.3694  162.7741 C.3     1  UNL1        0.0031
      2 C         137.6516  142.3285  163.5608 C.3     1  UNL1        0.0174
      3 C         137.3744  140.9855  162.9531 C.3     1  UNL1        0.0721
      4 N         137.8371  140.6833  161.5586 N.3     1  UNL1       -0.2724
      5 C         138.5769  141.7243  160.7718 C.3     1  UNL1        0.0721
      6 C         138.8541  143.0673  161.3795 C.3     1  UNL1        0.0174
      7 C         138.6687  144.7125  163.3818 C.3     1  UNL1        0.0048
      8 C         139.5931  144.8274  164.5575 C.3     1  UNL1        0.0265
      9 C         143.0195  142.8430  164.8248 C.ar    1  UNL1        0.1384
     10 C         143.9462  143.7796  164.1080 C.ar    1  UNL1        0.0369
     11 C         143.4219  145.0655  163.5409 C.ar    1  UNL1        0.0028
     12 C         141.9709  145.4148  163.6908 C.ar    1  UNL1       -0.0041
     13 C         141.0442  144.4781  164.4076 C.ar    1  UNL1       -0.0192
     14 C         141.5685  143.1922  164.9747 C.ar    1  UNL1        0.0326
     15 O         143.5439  141.5571  165.3919 O.3     1  UNL1       -0.4724
     16 C         142.5922  140.5379  165.9446 C.3     1  UNL1        0.2434
     17 F         142.8406  138.9570  167.9914 F       1  UNL1       -0.2302
     18 C         142.5165  140.3076  167.4249 C.3     1  UNL1        0.2403
     19 C         137.5599  139.3402  160.9509 C.3     1  UNL1        0.0768
     20 C         137.7498  138.0949  161.7652 C.3     1  UNL1        0.0437
     21 C         139.0105  137.8999  162.5542 C.ar    1  UNL1       -0.0208
     22 C         140.3376  137.8818  161.8553 C.ar    1  UNL1       -0.0042
     23 C         141.5982  137.6868  162.6444 C.ar    1  UNL1       -0.0003
     24 C         141.5318  137.5098  164.1324 C.ar    1  UNL1       -0.0000
     25 C         140.2048  137.5278  164.8314 C.ar    1  UNL1       -0.0003
     26 C         138.9441  137.7229  164.0423 C.ar    1  UNL1       -0.0042
@<TRIPOS>BOND
     1    17    18    1
     2    18    16    1
     3    16    15    1
     4    15     9    1
     5     9    10   ar
     6    10    11   ar
     7    11    12   ar
     8    12    13   ar
     9    13     8    1
    10     8     7    1
    11     7     1    1
    12     1     2    1
    13     2     3    1
    14     3     4    1
    15     4    19    1
    16    19    20    1
    17    20    21    1
    18    21    22   ar
    19    22    23   ar
    20    23    24   ar
    21    24    25   ar
    22    25    26   ar
    23     4     5    1
    24     5     6    1
    25    13    14   ar
    26    14     9   ar
    27     6     1    1
    28    26    21   ar
@<TRIPOS>MOLECULE
*****
 26 28 0 0 0
SMALL
GASTEIGER

@<TRIPOS>ATOM
      1 C         142.0431  144.1903  163.5617 C.3     1  UNL1        0.0031
      2 C         141.9628  143.4469  162.2614 C.3     1  UNL1        0.0174
      3 C         140.6496  142.8930  161.7941 C.3     1  UNL1        0.0721
      4 N         139.4166  143.0824  162.6271 N.3     1  UNL1       -0.2724
      5 C         139.4969  143.8258  163.9274 C.3     1  UNL1        0.0721
      6 C         140.8102  144.3797  164.3947 C.3     1  UNL1        0.0174
      7 C         143.3564  144.7443  164.0291 C.3     1  UNL1        0.0048
      8 C         144.2378  143.9279  164.9272 C.3     1  UNL1        0.0265
      9 C         143.7781  139.9863  164.8815 C.ar    1  UNL1        0.1384
     10 C         142.9882  139.7784  166.1395 C.ar    1  UNL1        0.0369
     11 C         142.6148  140.9537  166.9935 C.ar    1  UNL1        0.0028
     12 C         143.0313  142.3368  166.5895 C.ar    1  UNL1       -0.0041
     13 C         143.8212  142.5447  165.3314 C.ar    1  UNL1       -0.0192
     14 C         144.1946  141.3694  164.4774 C.ar    1  UNL1        0.0326
     15 O         144.1515  138.8110  164.0275 O.3     1  UNL1       -0.4724
     16 C         143.7392  138.7703  162.5858 C.3     1  UNL1        0.2434
     17 F         141.4059  139.8770  162.8705 F       1  UNL1       -0.2302
     18 C         142.2873  138.8533  162.2184 C.3     1  UNL1        0.2403
     19 C         138.1033  142.5284  162.1597 C.3     1  UNL1        0.0768
     20 C         137.3186  141.6087  163.0476 C.3     1  UNL1        0.0437
     21 C         137.9511  140.3548  163.5746 C.ar    1  UNL1       -0.0208
     22 C         138.3871  140.2799  165.0079 C.ar    1  UNL1       -0.0042
     23 C         139.0195  139.0261  165.5349 C.ar    1  UNL1       -0.0003
     24 C         139.2159  137.8470  164.6287 C.ar    1  UNL1       -0.0000
     25 C         138.7800  137.9219  163.1954 C.ar    1  UNL1       -0.0003
     26 C         138.1475  139.1758  162.6683 C.ar    1  UNL1       -0.0042
@<TRIPOS>BOND
     1    17    18    1
     2    18    16    1
     3    16    15    1
     4    15     9    1
     5     9    10   ar
     6    10    11   ar
     7    11    12   ar
     8    12    13   ar
     9    13     8    1
    10     8     7    1
    11     7     1    1
    12     1     2    1
    13     2     3    1
    14     3     4    1
    15     4    19    1
    16    19    20    1
    17    20    21    1
    18    21    22   ar
    19    22    23   ar
    20    23    24   ar
    21    24    25   ar
    22    25    26   ar
    23     4     5    1
    24     5     6    1
    25    13    14   ar
    26    14     9   ar
    27     6     1    1
    28    26    21   ar
@<TRIPOS>MOLECULE
*****
 26 28 0 0 0
SMALL
GASTEIGER

@<TRIPOS>ATOM
      1 C         138.1922  140.0118  162.3137 C.3     1  UNL1        0.0031
      2 C         138.8277  140.8976  161.2835 C.3     1  UNL1        0.0174
      3 C         138.9658  142.3687  161.5417 C.3     1  UNL1        0.0721
      4 N         138.4684  142.9540  162.8301 N.3     1  UNL1       -0.2724
      5 C         137.8329  142.0682  163.8603 C.3     1  UNL1        0.0721
      6 C         137.6949  140.5971  163.6022 C.3     1  UNL1        0.0174
      7 C         138.0541  138.5406  162.0556 C.3     1  UNL1        0.0048
      8 C         138.7869  137.5558  162.9177 C.3     1  UNL1        0.0265
      9 C         142.6775  138.3061  163.1421 C.ar    1  UNL1        0.1384
     10 C         142.8239  138.6089  164.6039 C.ar    1  UNL1        0.0369
     11 C         141.6247  138.5606  165.5036 C.ar    1  UNL1        0.0028
     12 C         140.2790  138.2096  164.9416 C.ar    1  UNL1       -0.0041
     13 C         140.1326  137.9068  163.4798 C.ar    1  UNL1       -0.0192
     14 C         141.3319  137.9551  162.5801 C.ar    1  UNL1        0.0326
     15 O         143.8768  138.3544  162.2424 O.3     1  UNL1       -0.4724
     16 C         144.1665  139.5911  161.4446 C.3     1  UNL1        0.2434
     17 F         145.1775  140.7311  163.5490 F       1  UNL1       -0.2302
     18 C         144.7152  140.8106  162.1241 C.3     1  UNL1        0.2403
     19 C         138.6065  144.4252  163.0882 C.3     1  UNL1        0.0768
     20 C         139.4736  144.9114  164.2115 C.3     1  UNL1        0.0437
     21 C         140.9104  144.4874  164.2873 C.ar    1  UNL1       -0.0208
     22 C         141.9775  145.3391  163.6660 C.ar    1  UNL1       -0.0042
     23 C         143.4143  144.9151  163.7419 C.ar    1  UNL1       -0.0003
     24 C         143.7841  143.6395  164.4390 C.ar    1  UNL1       -0.0000
     25 C         142.7170  142.7878  165.0602 C.ar    1  UNL1       -0.0003
     26 C         141.2801  143.2117  164.9844 C.ar    1  UNL1       -0.0042
@<TRIPOS>BOND
     1    17    18    1
     2    18    16    1
     3    16    15    1
     4    15     9    1
     5     9    10   ar
     6    10    11   ar
     7    11    12   ar
     8    12    13   ar
     9    13     8    1
    10     8     7    1
    11     7     1    1
    12     1     2    1
    13     2     3    1
    14     3     4    1
    15     4    19    1
    16    19    20    1
    17    20    21    1
    18    21    22   ar
    19    22    23   ar
    20    23    24   ar
    21    24    25   ar
    22    25    26   ar
    23     4     5    1
    24     5     6    1
    25    13    14   ar
    26    14     9   ar
    27     6     1    1
    28    26    21   ar
@<TRIPOS>MOLECULE
*****
 26 28 0 0 0
SMALL
GASTEIGER

@<TRIPOS>ATOM
      1 C         139.3467  142.9906  162.8445 C.3     1  UNL1        0.0031
      2 C         139.5555  143.6579  164.1716 C.3     1  UNL1        0.0174
      3 C         140.9254  144.1200  164.5714 C.3     1  UNL1        0.0721
      4 N         142.0864  143.9148  163.6441 N.3     1  UNL1       -0.2724
      5 C         141.8776  143.2476  162.3170 C.3     1  UNL1        0.0721
      6 C         140.5077  142.7855  161.9173 C.3     1  UNL1        0.0174
      7 C         137.9767  142.5285  162.4447 C.3     1  UNL1        0.0048
      8 C         137.3097  141.4177  163.2004 C.3     1  UNL1        0.0265
      9 C         139.7068  138.2575  163.3315 C.ar    1  UNL1        0.1384
     10 C         139.7592  138.0026  164.8087 C.ar    1  UNL1        0.0369
     11 C         138.9952  138.8861  165.7499 C.ar    1  UNL1        0.0028
     12 C         138.1787  140.0244  165.2138 C.ar    1  UNL1       -0.0041
     13 C         138.1262  140.2793  163.7365 C.ar    1  UNL1       -0.0192
     14 C         138.8903  139.3958  162.7954 C.ar    1  UNL1        0.0326
     15 O         140.4708  137.3740  162.3904 O.3     1  UNL1       -0.4724
     16 C         141.2100  137.9744  161.2315 C.3     1  UNL1        0.2434
     17 F         142.2410  140.0319  162.4373 F       1  UNL1       -0.2302
     18 C         142.3745  138.8876  161.4767 C.3     1  UNL1        0.2403
     19 C         143.4564  144.3770  164.0439 C.3     1  UNL1        0.0768
     20 C         144.2569  143.5826  165.0329 C.3     1  UNL1        0.0437
     21 C         144.1769  142.0848  165.0321 C.ar    1  UNL1       -0.0208
     22 C         145.1471  141.2823  164.2168 C.ar    1  UNL1       -0.0042
     23 C         145.0671  139.7845  164.2160 C.ar    1  UNL1       -0.0003
     24 C         144.0169  139.0891  165.0305 C.ar    1  UNL1       -0.0000
     25 C         143.0466  139.8915  165.8457 C.ar    1  UNL1       -0.0003
     26 C         143.1266  141.3894  165.8466 C.ar    1  UNL1       -0.0042
@<TRIPOS>BOND
     1    17    18    1
     2    18    16    1
     3    16    15    1
     4    15     9    1
     5     9    10   ar
     6    10    11   ar
     7    11    12   ar
     8    12    13   ar
     9    13     8    1
    10     8     7    1
    11     7     1    1
    12     1     2    1
    13     2     3    1
    14     3     4    1
    15     4    19    1
    16    19    20    1
    17    20    21    1
    18    21    22   ar
    19    22    23   ar
    20    23    24   ar
    21    24    25   ar
    22    25    26   ar
    23     4     5    1
    24     5     6    1
    25    13    14   ar
    26    14     9   ar
    27     6     1    1
    28    26    21   ar
