@<TRIPOS>MOLECULE
*****
 21 23 0 0 0
SMALL
GASTEIGER

@<TRIPOS>ATOM
      1 O         144.1632  138.0180  166.9589 O.2     1  UNL1       -0.2699
      2 C         142.9888  138.6919  166.3132 C.2     1  UNL1        0.2498
      3 N         142.1914  139.7056  167.0791 N.am    1  UNL1       -0.2763
      4 C         142.6118  138.3520  164.9017 C.ar    1  UNL1        0.0641
      5 C         141.4507  137.4408  164.6342 C.ar    1  UNL1        0.0054
      6 C         141.0737  137.1009  163.2227 C.ar    1  UNL1        0.0002
      7 C         141.8579  137.6722  162.0787 C.ar    1  UNL1        0.0009
      8 C         143.0189  138.5834  162.3462 C.ar    1  UNL1        0.0115
      9 C         143.3959  138.9233  163.7577 C.ar    1  UNL1        0.0620
     10 CL        144.5570  139.8345  164.0252 Cl      1  UNL1       -0.0821
     11 C         142.5684  140.0455  168.4906 C.3     1  UNL1        0.0927
     12 C         142.4576  139.1339  169.6766 C.3     1  UNL1        0.0383
     13 C         142.9431  139.8817  170.8830 C.3     1  UNL1        0.0704
     14 N         143.3538  141.2555  170.4425 N.3     1  UNL1       -0.2960
     15 C         143.1222  141.3567  168.9639 C.3     1  UNL1        0.0887
     16 H         144.3415  141.4044  170.6491 H       1  UNL1        0.1233
     17 C         141.0170  140.3795  166.4334 C.3     1  UNL1        0.0936
     18 C         139.6415  139.8022  166.5903 C.3     1  UNL1        0.0199
     19 C         138.7681  139.4441  167.7561 C.3     1  UNL1        0.0017
     20 C         137.6962  138.9857  166.8123 C.3     1  UNL1        0.0001
     21 C         138.5696  139.3437  165.6465 C.3     1  UNL1        0.0017
@<TRIPOS>BOND
     1     1     2    2
     2     2     4    1
     3     4     5   ar
     4     5     6   ar
     5     6     7   ar
     6     7     8   ar
     7     8     9   ar
     8     9    10    1
     9     2     3   am
    10     3    17    1
    11    17    18    1
    12    18    19    1
    13    19    20    1
    14    20    21    1
    15    11     3    1
    16    11    12    1
    17    12    13    1
    18    13    14    1
    19    14    15    1
    20     9     4   ar
    21    21    18    1
    22    15    11    1
    23    14    16    1
@<TRIPOS>MOLECULE
*****
 21 23 0 0 0
SMALL
GASTEIGER

@<TRIPOS>ATOM
      1 O         139.7544  143.7359  165.2164 O.2     1  UNL1       -0.2699
      2 C         140.7502  142.9034  165.9684 C.2     1  UNL1        0.2498
      3 N         142.1517  142.7628  165.4528 N.am    1  UNL1       -0.2763
      4 C         140.3444  142.2116  167.2359 C.ar    1  UNL1        0.0641
      5 C         140.5278  142.8982  168.5570 C.ar    1  UNL1        0.0054
      6 C         140.1220  142.2063  169.8245 C.ar    1  UNL1        0.0002
      7 C         139.5328  140.8279  169.7710 C.ar    1  UNL1        0.0009
      8 C         139.3495  140.1413  168.4501 C.ar    1  UNL1        0.0115
      9 C         139.7552  140.8332  167.1825 C.ar    1  UNL1        0.0620
     10 CL        139.5718  140.1466  165.8615 Cl      1  UNL1       -0.0821
     11 C         142.5575  143.4547  164.1852 C.3     1  UNL1        0.0927
     12 C         142.2779  142.9764  162.7913 C.3     1  UNL1        0.0383
     13 C         142.8617  143.9724  161.8336 C.3     1  UNL1        0.0704
     14 N         143.5022  145.0662  162.6357 N.3     1  UNL1       -0.2960
     15 C         143.3142  144.7462  164.0890 C.3     1  UNL1        0.0887
     16 H         143.0603  145.9594  162.4179 H       1  UNL1        0.1233
     17 C         143.1476  141.9303  166.2047 C.3     1  UNL1        0.0936
     18 C         143.1696  140.4415  166.0234 C.3     1  UNL1        0.0199
     19 C         143.3790  139.5176  164.8604 C.3     1  UNL1        0.0017
     20 C         143.2008  138.3360  165.7669 C.3     1  UNL1        0.0001
     21 C         142.9913  139.2598  166.9300 C.3     1  UNL1        0.0017
@<TRIPOS>BOND
     1     1     2    2
     2     2     4    1
     3     4     5   ar
     4     5     6   ar
     5     6     7   ar
     6     7     8   ar
     7     8     9   ar
     8     9    10    1
     9     2     3   am
    10     3    17    1
    11    17    18    1
    12    18    19    1
    13    19    20    1
    14    20    21    1
    15    11     3    1
    16    11    12    1
    17    12    13    1
    18    13    14    1
    19    14    15    1
    20     9     4   ar
    21    21    18    1
    22    15    11    1
    23    14    16    1
@<TRIPOS>MOLECULE
*****
 21 23 0 0 0
SMALL
GASTEIGER

@<TRIPOS>ATOM
      1 O         144.4107  142.1843  165.1499 O.2     1  UNL1       -0.2699
      2 C         143.1165  142.2377  165.9065 C.2     1  UNL1        0.2498
      3 N         141.9324  142.9459  165.3181 N.am    1  UNL1       -0.2763
      4 C         143.0065  141.5827  167.2515 C.ar    1  UNL1        0.0641
      5 C         143.3262  142.3613  168.4932 C.ar    1  UNL1        0.0054
      6 C         143.2162  141.7063  169.8382 C.ar    1  UNL1        0.0002
      7 C         142.7865  140.2729  169.9415 C.ar    1  UNL1        0.0009
      8 C         142.4668  139.4944  168.6998 C.ar    1  UNL1        0.0115
      9 C         142.5768  140.1493  167.3548 C.ar    1  UNL1        0.0620
     10 CL        142.2570  139.3708  166.1131 Cl      1  UNL1       -0.0821
     11 C         142.0424  143.6009  163.9732 C.3     1  UNL1        0.0927
     12 C         141.7754  142.9472  162.6497 C.3     1  UNL1        0.0383
     13 C         142.0067  143.9668  161.5741 C.3     1  UNL1        0.0704
     14 N         142.4166  145.2506  162.2328 N.3     1  UNL1       -0.2960
     15 C         142.4387  145.0244  163.7154 C.3     1  UNL1        0.0887
     16 H         141.7474  145.9858  162.0047 H       1  UNL1        0.1233
     17 C         140.6382  142.9993  166.0747 C.3     1  UNL1        0.0936
     18 C         139.3933  143.4906  165.3975 C.3     1  UNL1        0.0199
     19 C         138.7158  144.8217  165.2594 C.3     1  UNL1        0.0017
     20 C         137.6326  144.1854  164.4398 C.3     1  UNL1        0.0001
     21 C         138.3101  142.8542  164.5779 C.3     1  UNL1        0.0017
@<TRIPOS>BOND
     1     1     2    2
     2     2     4    1
     3     4     5   ar
     4     5     6   ar
     5     6     7   ar
     6     7     8   ar
     7     8     9   ar
     8     9    10    1
     9     2     3   am
    10     3    17    1
    11    17    18    1
    12    18    19    1
    13    19    20    1
    14    20    21    1
    15    11     3    1
    16    11    12    1
    17    12    13    1
    18    13    14    1
    19    14    15    1
    20     9     4   ar
    21    21    18    1
    22    15    11    1
    23    14    16    1
@<TRIPOS>MOLECULE
*****
 21 23 0 0 0
SMALL
GASTEIGER

@<TRIPOS>ATOM
      1 O         144.0966  138.5881  165.9691 O.2     1  UNL1       -0.2699
      2 C         142.8643  139.3852  166.2796 C.2     1  UNL1        0.2498
      3 N         141.7339  139.4327  165.2949 N.am    1  UNL1       -0.2763
      4 C         142.7626  140.1347  167.5749 C.ar    1  UNL1        0.0641
      5 C         142.3885  139.4096  168.8337 C.ar    1  UNL1        0.0054
      6 C         142.2868  140.1592  170.1290 C.ar    1  UNL1        0.0002
      7 C         142.5592  141.6339  170.1655 C.ar    1  UNL1        0.0009
      8 C         142.9333  142.3589  168.9068 C.ar    1  UNL1        0.0115
      9 C         143.0350  141.6093  167.6115 C.ar    1  UNL1        0.0620
     10 CL        143.4091  142.3344  166.3528 Cl      1  UNL1       -0.0821
     11 C         141.8356  138.6831  163.9995 C.3     1  UNL1        0.0927
     12 C         142.5778  139.1333  162.7763 C.3     1  UNL1        0.0383
     13 C         142.4139  138.0802  161.7208 C.3     1  UNL1        0.0704
     14 N         141.5703  136.9791  162.2917 N.3     1  UNL1       -0.2960
     15 C         141.2129  137.3517  163.7000 C.3     1  UNL1        0.0887
     16 H         142.0942  136.1039  162.2876 H       1  UNL1        0.1233
     17 C         140.5016  140.2297  165.6054 C.3     1  UNL1        0.0936
     18 C         139.3340  139.5732  166.2803 C.3     1  UNL1        0.0199
     19 C         138.2221  138.6701  165.8354 C.3     1  UNL1        0.0017
     20 C         137.6828  138.6447  167.2349 C.3     1  UNL1        0.0001
     21 C         138.7947  139.5478  167.6798 C.3     1  UNL1        0.0017
@<TRIPOS>BOND
     1     1     2    2
     2     2     4    1
     3     4     5   ar
     4     5     6   ar
     5     6     7   ar
     6     7     8   ar
     7     8     9   ar
     8     9    10    1
     9     2     3   am
    10     3    17    1
    11    17    18    1
    12    18    19    1
    13    19    20    1
    14    20    21    1
    15    11     3    1
    16    11    12    1
    17    12    13    1
    18    13    14    1
    19    14    15    1
    20     9     4   ar
    21    21    18    1
    22    15    11    1
    23    14    16    1
@<TRIPOS>MOLECULE
*****
 21 23 0 0 0
SMALL
GASTEIGER

@<TRIPOS>ATOM
      1 O         143.1826  142.2386  166.2966 O.2     1  UNL1       -0.2699
      2 C         141.7104  142.5142  166.3800 C.2     1  UNL1        0.2498
      3 N         141.0260  143.2727  165.2818 N.am    1  UNL1       -0.2763
      4 C         140.9228  142.0313  167.5618 C.ar    1  UNL1        0.0641
      5 C         140.7373  142.9223  168.7542 C.ar    1  UNL1        0.0054
      6 C         139.9497  142.4394  169.9359 C.ar    1  UNL1        0.0002
      7 C         139.3475  141.0655  169.9252 C.ar    1  UNL1        0.0009
      8 C         139.5330  140.1747  168.7328 C.ar    1  UNL1        0.0115
      9 C         140.3207  140.6576  167.5511 C.ar    1  UNL1        0.0620
     10 CL        140.5061  139.7666  166.3586 Cl      1  UNL1       -0.0821
     11 C         141.8136  143.7556  164.1001 C.3     1  UNL1        0.0927
     12 C         142.1656  142.9485  162.8857 C.3     1  UNL1        0.0383
     13 C         142.9571  143.8245  161.9603 C.3     1  UNL1        0.0704
     14 N         143.0943  145.1729  162.6028 N.3     1  UNL1       -0.2960
     15 C         142.3876  145.1304  163.9252 C.3     1  UNL1        0.0887
     16 H         142.6715  145.8848  162.0072 H       1  UNL1        0.1233
     17 C         139.5538  143.5483  165.3652 C.3     1  UNL1        0.0936
     18 C         138.6017  142.8166  164.4664 C.3     1  UNL1        0.0199
     19 C         138.0912  141.4086  164.3835 C.3     1  UNL1        0.0017
     20 C         137.2551  141.7817  163.1953 C.3     1  UNL1        0.0001
     21 C         137.7656  143.1897  163.2783 C.3     1  UNL1        0.0017
@<TRIPOS>BOND
     1     1     2    2
     2     2     4    1
     3     4     5   ar
     4     5     6   ar
     5     6     7   ar
     6     7     8   ar
     7     8     9   ar
     8     9    10    1
     9     2     3   am
    10     3    17    1
    11    17    18    1
    12    18    19    1
    13    19    20    1
    14    20    21    1
    15    11     3    1
    16    11    12    1
    17    12    13    1
    18    13    14    1
    19    14    15    1
    20     9     4   ar
    21    21    18    1
    22    15    11    1
    23    14    16    1
@<TRIPOS>MOLECULE
*****
 21 23 0 0 0
SMALL
GASTEIGER

@<TRIPOS>ATOM
      1 O         141.4708  138.9725  165.5812 O.2     1  UNL1       -0.2699
      2 C         140.2925  139.8704  165.8172 C.2     1  UNL1        0.2498
      3 N         139.2450  140.0280  164.7552 N.am    1  UNL1       -0.2763
      4 C         140.1619  140.6106  167.1153 C.ar    1  UNL1        0.0641
      5 C         139.5079  139.9502  168.2927 C.ar    1  UNL1        0.0054
      6 C         139.3772  140.6905  169.5908 C.ar    1  UNL1        0.0002
      7 C         139.9005  142.0911  169.7115 C.ar    1  UNL1        0.0009
      8 C         140.5545  142.7514  168.5341 C.ar    1  UNL1        0.0115
      9 C         140.6852  142.0112  167.2360 C.ar    1  UNL1        0.0620
     10 CL        141.3392  142.6716  166.0586 Cl      1  UNL1       -0.0821
     11 C         139.3757  139.2878  163.4572 C.3     1  UNL1        0.0927
     12 C         140.0404  139.7993  162.2136 C.3     1  UNL1        0.0383
     13 C         139.9401  138.7338  161.1626 C.3     1  UNL1        0.0704
     14 N         139.2134  137.5637  161.7566 N.3     1  UNL1       -0.2960
     15 C         138.8646  137.9062  163.1747 C.3     1  UNL1        0.0887
     16 H         139.8122  136.7382  161.7371 H       1  UNL1        0.1233
     17 C         138.0668  140.9259  164.9913 C.3     1  UNL1        0.0936
     18 C         137.9741  142.2439  164.2812 C.3     1  UNL1        0.0199
     19 C         137.6366  142.6749  162.8847 C.3     1  UNL1        0.0017
     20 C         137.8429  144.1079  163.2770 C.3     1  UNL1        0.0001
     21 C         138.1805  143.6769  164.6735 C.3     1  UNL1        0.0017
@<TRIPOS>BOND
     1     1     2    2
     2     2     4    1
     3     4     5   ar
     4     5     6   ar
     5     6     7   ar
     6     7     8   ar
     7     8     9   ar
     8     9    10    1
     9     2     3   am
    10     3    17    1
    11    17    18    1
    12    18    19    1
    13    19    20    1
    14    20    21    1
    15    11     3    1
    16    11    12    1
    17    12    13    1
    18    13    14    1
    19    14    15    1
    20     9     4   ar
    21    21    18    1
    22    15    11    1
    23    14    16    1
@<TRIPOS>MOLECULE
*****
 21 23 0 0 0
SMALL
GASTEIGER

@<TRIPOS>ATOM
      1 O         138.0201  139.1524  168.1091 O.2     1  UNL1       -0.2699
      2 C         139.0890  139.5698  167.1430 C.2     1  UNL1        0.2498
      3 N         140.2632  140.3701  167.6234 N.am    1  UNL1       -0.2763
      4 C         138.9837  139.1868  165.6966 C.ar    1  UNL1        0.0641
      5 C         139.3674  137.8050  165.2567 C.ar    1  UNL1        0.0054
      6 C         139.2620  137.4221  163.8102 C.ar    1  UNL1        0.0002
      7 C         138.7729  138.4209  162.8036 C.ar    1  UNL1        0.0009
      8 C         138.3893  139.8027  163.2435 C.ar    1  UNL1        0.0115
      9 C         138.4946  140.1856  164.6900 C.ar    1  UNL1        0.0620
     10 CL        138.1109  141.5675  165.1298 Cl      1  UNL1       -0.0821
     11 C         140.3685  140.7531  169.0698 C.3     1  UNL1        0.0927
     12 C         140.1357  142.1213  169.6389 C.3     1  UNL1        0.0383
     13 C         140.3485  142.0489  171.1219 C.3     1  UNL1        0.0704
     14 N         140.7128  140.6359  171.4695 N.3     1  UNL1       -0.2960
     15 C         140.7252  139.8351  170.2012 C.3     1  UNL1        0.0887
     16 H         140.0246  140.2500  172.1159 H       1  UNL1        0.1233
     17 C         141.3321  140.7875  166.6572 C.3     1  UNL1        0.0936
     18 C         142.4142  139.8224  166.2730 C.3     1  UNL1        0.0199
     19 C         143.1853  138.7535  166.9890 C.3     1  UNL1        0.0017
     20 C         143.9445  138.4576  165.7296 C.3     1  UNL1        0.0001
     21 C         143.1733  139.5265  165.0136 C.3     1  UNL1        0.0017
@<TRIPOS>BOND
     1     1     2    2
     2     2     4    1
     3     4     5   ar
     4     5     6   ar
     5     6     7   ar
     6     7     8   ar
     7     8     9   ar
     8     9    10    1
     9     2     3   am
    10     3    17    1
    11    17    18    1
    12    18    19    1
    13    19    20    1
    14    20    21    1
    15    11     3    1
    16    11    12    1
    17    12    13    1
    18    13    14    1
    19    14    15    1
    20     9     4   ar
    21    21    18    1
    22    15    11    1
    23    14    16    1
@<TRIPOS>MOLECULE
*****
 21 23 0 0 0
SMALL
GASTEIGER

@<TRIPOS>ATOM
      1 O         143.5786  142.4948  168.3863 O.2     1  UNL1       -0.2699
      2 C         142.7561  142.3041  167.1465 C.2     1  UNL1        0.2498
      3 N         141.2631  142.1988  167.2457 N.am    1  UNL1       -0.2763
      4 C         143.4266  142.2187  165.8074 C.ar    1  UNL1        0.0641
      5 C         143.8116  143.4728  165.0800 C.ar    1  UNL1        0.0054
      6 C         144.4821  143.3874  163.7410 C.ar    1  UNL1        0.0002
      7 C         144.7677  142.0478  163.1293 C.ar    1  UNL1        0.0009
      8 C         144.3827  140.7938  163.8567 C.ar    1  UNL1        0.0115
      9 C         143.7122  140.8792  165.1957 C.ar    1  UNL1        0.0620
     10 CL        143.3272  139.6250  165.9231 Cl      1  UNL1       -0.0821
     11 C         140.5926  142.2842  168.5848 C.3     1  UNL1        0.0927
     12 C         140.4559  143.5191  169.4253 C.3     1  UNL1        0.0383
     13 C         139.7199  143.1479  170.6784 C.3     1  UNL1        0.0704
     14 N         139.4016  141.6835  170.6125 N.3     1  UNL1       -0.2960
     15 C         139.9410  141.1498  169.3186 C.3     1  UNL1        0.0887
     16 H         138.3915  141.5468  170.6491 H       1  UNL1        0.1233
     17 C         140.4406  142.0081  166.0059 C.3     1  UNL1        0.0936
     18 C         139.9855  143.1999  165.2171 C.3     1  UNL1        0.0199
     19 C         139.0535  144.3474  165.4716 C.3     1  UNL1        0.0017
     20 C         139.3420  144.8856  164.1015 C.3     1  UNL1        0.0001
     21 C         140.2740  143.7381  163.8470 C.3     1  UNL1        0.0017
@<TRIPOS>BOND
     1     1     2    2
     2     2     4    1
     3     4     5   ar
     4     5     6   ar
     5     6     7   ar
     6     7     8   ar
     7     8     9   ar
     8     9    10    1
     9     2     3   am
    10     3    17    1
    11    17    18    1
    12    18    19    1
    13    19    20    1
    14    20    21    1
    15    11     3    1
    16    11    12    1
    17    12    13    1
    18    13    14    1
    19    14    15    1
    20     9     4   ar
    21    21    18    1
    22    15    11    1
    23    14    16    1
@<TRIPOS>MOLECULE
*****
 21 23 0 0 0
SMALL
GASTEIGER

@<TRIPOS>ATOM
      1 O         138.1494  138.9646  167.7845 O.2     1  UNL1       -0.2699
      2 C         139.0641  139.6132  166.7881 C.2     1  UNL1        0.2498
      3 N         140.3379  140.2580  167.2480 N.am    1  UNL1       -0.2763
      4 C         138.7048  139.6171  165.3317 C.ar    1  UNL1        0.0641
      5 C         137.9950  140.7974  164.7375 C.ar    1  UNL1        0.0054
      6 C         137.6357  140.8012  163.2811 C.ar    1  UNL1        0.0002
      7 C         137.9862  139.6247  162.4191 C.ar    1  UNL1        0.0009
      8 C         138.6959  138.4444  163.0134 C.ar    1  UNL1        0.0115
      9 C         139.0552  138.4406  164.4697 C.ar    1  UNL1        0.0620
     10 CL        139.7650  137.2603  165.0640 Cl      1  UNL1       -0.0821
     11 C         140.6972  140.2541  168.7043 C.3     1  UNL1        0.0927
     12 C         139.9650  140.9781  169.7950 C.3     1  UNL1        0.0383
     13 C         140.6671  140.6971  171.0904 C.3     1  UNL1        0.0704
     14 N         141.8333  139.7994  170.8003 N.3     1  UNL1       -0.2960
     15 C         141.8519  139.5257  169.3256 C.3     1  UNL1        0.0887
     16 H         141.7322  138.9238  171.3137 H       1  UNL1        0.1233
     17 C         141.2526  140.9066  166.2515 C.3     1  UNL1        0.0936
     18 C         142.1562  140.0624  165.4025 C.3     1  UNL1        0.0199
     19 C         142.4772  139.9935  163.9388 C.3     1  UNL1        0.0017
     20 C         143.4341  138.8687  164.2017 C.3     1  UNL1        0.0001
     21 C         143.1132  138.9377  165.6653 C.3     1  UNL1        0.0017
@<TRIPOS>BOND
     1     1     2    2
     2     2     4    1
     3     4     5   ar
     4     5     6   ar
     5     6     7   ar
     6     7     8   ar
     7     8     9   ar
     8     9    10    1
     9     2     3   am
    10     3    17    1
    11    17    18    1
    12    18    19    1
    13    19    20    1
    14    20    21    1
    15    11     3    1
    16    11    12    1
    17    12    13    1
    18    13    14    1
    19    14    15    1
    20     9     4   ar
    21    21    18    1
    22    15    11    1
    23    14    16    1
