@<TRIPOS>MOLECULE
*****
 42 45 0 0 0
SMALL
GASTEIGER

@<TRIPOS>ATOM
      1 C         140.3052  145.4333  160.4499 C.3     1  UNL1        0.0719
      2 C         139.6798  146.0413  161.6702 C.3     1  UNL1        0.0201
      3 C         139.5042  145.2184  162.9120 C.3     1  UNL1        0.0111
      4 C         139.9539  143.7877  162.9335 C.3     1  UNL1        0.0806
      5 C         140.5793  143.1797  161.7132 C.3     1  UNL1        0.0326
      6 C         140.7550  144.0025  160.4714 C.3     1  UNL1        0.0244
      7 C         141.0291  141.7488  161.7347 C.ar    1  UNL1       -0.0219
      8 C         140.0508  140.6506  161.4404 C.ar    1  UNL1       -0.0038
      9 C         140.5006  139.2197  161.4619 C.ar    1  UNL1        0.0064
     10 C         141.9288  138.8872  161.7777 C.ar    1  UNL1        0.0345
     11 BR        142.3786  137.4564  161.7992 Br      1  UNL1       -0.0490
     12 C         142.9071  139.9855  162.0720 C.ar    1  UNL1        0.0064
     13 C         142.4573  141.4163  162.0505 C.ar    1  UNL1       -0.0038
     14 C         140.1273  145.6787  157.8695 C.2     1  UNL1        0.2388
     15 O         139.5982  144.2784  157.7728 O.2     1  UNL1       -0.2736
     16 N         140.4808  146.2561  159.2080 N.am    1  UNL1       -0.3048
     17 H         140.8281  147.1751  159.2715 H       1  UNL1        0.1494
     18 C         140.3030  146.5015  156.6277 C.3     1  UNL1        0.1584
     19 N         139.1232  147.1971  156.0159 N.3     1  UNL1       -0.2651
     20 C         138.6429  149.7293  155.6887 C.3     1  UNL1        0.0188
     21 C         138.6600  148.5132  156.5666 C.3     1  UNL1        0.0726
     22 C         138.4067  146.5766  154.8533 C.3     1  UNL1        0.0726
     23 C         137.6967  145.2661  155.0226 C.3     1  UNL1        0.0188
     24 C         139.7783  142.9649  164.1754 C.2     1  UNL1        0.2227
     25 O         138.4005  142.6257  164.6617 O.2     1  UNL1       -0.2751
     26 N         140.9805  142.4812  164.9308 N.am    1  UNL1       -0.2986
     27 H         141.8848  142.7038  164.6116 H       1  UNL1        0.1500
     28 C         140.8049  141.6584  166.1727 C.3     1  UNL1        0.1169
     29 C         140.0484  140.3644  166.1142 C.ar    1  UNL1       -0.0002
     30 C         140.4195  139.3239  165.0995 C.ar    1  UNL1       -0.0001
     31 C         139.6631  138.0299  165.0410 C.ar    1  UNL1        0.0294
     32 C         138.5355  137.7764  165.9973 C.ar    1  UNL1        0.1401
     33 F         137.7791  136.4824  165.9388 F       1  UNL1       -0.2042
     34 C         138.1644  138.8168  167.0120 C.ar    1  UNL1        0.0294
     35 C         138.9209  140.1109  167.0704 C.ar    1  UNL1       -0.0001
     36 C         141.3856  142.1295  167.4729 C.ar    1  UNL1       -0.0002
     37 C         142.8064  141.7996  167.8230 C.ar    1  UNL1       -0.0001
     38 C         143.3872  142.2708  169.1233 C.ar    1  UNL1        0.0294
     39 C         142.5473  143.0718  170.0734 C.ar    1  UNL1        0.1401
     40 F         143.1281  143.5430  171.3737 F       1  UNL1       -0.2042
     41 C         141.1265  143.4017  169.7233 C.ar    1  UNL1        0.0294
     42 C         140.5457  142.9306  168.4231 C.ar    1  UNL1       -0.0001
@<TRIPOS>BOND
     1    20    21    1
     2    21    19    1
     3    19    22    1
     4    22    23    1
     5    19    18    1
     6    18    14    1
     7    14    15    2
     8    14    16   am
     9     1    16    1
    10     1     2    1
    11     2     3    1
    12     3     4    1
    13     4    24    1
    14    24    25    2
    15    24    26   am
    16    26    28    1
    17    28    29    1
    18    29    30   ar
    19    30    31   ar
    20    31    32   ar
    21    32    33    1
    22    32    34   ar
    23    34    35   ar
    24    28    36    1
    25    36    37   ar
    26    37    38   ar
    27    38    39   ar
    28    39    40    1
    29    39    41   ar
    30    41    42   ar
    31     4     5    1
    32     5     7    1
    33     7     8   ar
    34     8     9   ar
    35     9    10   ar
    36    10    11    1
    37    10    12   ar
    38    12    13   ar
    39     5     6    1
    40     6     1    1
    41    35    29   ar
    42    42    36   ar
    43    13     7   ar
    44    16    17    1
    45    26    27    1
@<TRIPOS>MOLECULE
*****
 42 45 0 0 0
SMALL
GASTEIGER

@<TRIPOS>ATOM
      1 C         140.3908  145.4305  160.3376 C.3     1  UNL1        0.0719
      2 C         139.7445  146.0377  161.5474 C.3     1  UNL1        0.0201
      3 C         139.5539  145.2162  162.7879 C.3     1  UNL1        0.0111
      4 C         140.0096  143.7874  162.8186 C.3     1  UNL1        0.0806
      5 C         140.6559  143.1802  161.6088 C.3     1  UNL1        0.0326
      6 C         140.8465  144.0017  160.3683 C.3     1  UNL1        0.0244
      7 C         141.1116  141.7514  161.6395 C.ar    1  UNL1       -0.0219
      8 C         140.1459  140.6491  161.3195 C.ar    1  UNL1       -0.0038
      9 C         140.6017  139.2203  161.3502 C.ar    1  UNL1        0.0064
     10 C         142.0231  138.8938  161.7008 C.ar    1  UNL1        0.0345
     11 BR        142.4789  137.4651  161.7315 Br      1  UNL1       -0.0490
     12 C         142.9888  139.9962  162.0208 C.ar    1  UNL1        0.0064
     13 C         142.5331  141.4249  161.9901 C.ar    1  UNL1       -0.0038
     14 C         140.1652  145.7049  157.7640 C.2     1  UNL1        0.2388
     15 O         139.5583  144.3362  157.6712 O.2     1  UNL1       -0.2736
     16 N         140.5814  146.2520  159.0972 N.am    1  UNL1       -0.3048
     17 H         140.9796  147.1503  159.1580 H       1  UNL1        0.1494
     18 C         140.3557  146.5265  156.5235 C.3     1  UNL1        0.1584
     19 N         139.1698  146.9124  155.6900 N.3     1  UNL1       -0.2651
     20 C         138.7844  144.7102  154.3666 C.3     1  UNL1        0.0188
     21 C         138.2420  145.8545  155.1705 C.3     1  UNL1        0.0726
     22 C         138.9117  148.3563  155.3761 C.3     1  UNL1        0.0726
     23 C         139.7026  149.0434  154.3025 C.3     1  UNL1        0.0188
     24 C         139.8190  142.9659  164.0591 C.2     1  UNL1        0.2227
     25 O         138.4356  142.6203  164.5246 O.2     1  UNL1       -0.2751
     26 N         141.0119  142.4899  164.8340 N.am    1  UNL1       -0.2986
     27 H         141.9198  142.7167  164.5285 H       1  UNL1        0.1500
     28 C         140.8213  141.6684  166.0745 C.3     1  UNL1        0.1169
     29 C         141.3877  142.1402  167.3809 C.ar    1  UNL1       -0.0002
     30 C         142.8097  141.8248  167.7393 C.ar    1  UNL1       -0.0001
     31 C         143.3762  142.2966  169.0456 C.ar    1  UNL1        0.0294
     32 C         142.5207  143.0837  169.9936 C.ar    1  UNL1        0.1401
     33 F         143.0871  143.5555  171.2999 F       1  UNL1       -0.2042
     34 C         141.0987  143.3991  169.6351 C.ar    1  UNL1        0.0294
     35 C         140.5322  142.9273  168.3287 C.ar    1  UNL1       -0.0001
     36 C         140.0643  140.3751  166.0086 C.ar    1  UNL1       -0.0002
     37 C         138.9355  140.1174  166.9622 C.ar    1  UNL1       -0.0001
     38 C         138.1785  138.8241  166.8964 C.ar    1  UNL1        0.0294
     39 C         138.5502  137.7885  165.8769 C.ar    1  UNL1        0.1401
     40 F         137.7932  136.4953  165.8110 F       1  UNL1       -0.2042
     41 C         139.6790  138.0463  164.9232 C.ar    1  UNL1        0.0294
     42 C         140.4360  139.3396  164.9891 C.ar    1  UNL1       -0.0001
@<TRIPOS>BOND
     1    20    21    1
     2    21    19    1
     3    19    22    1
     4    22    23    1
     5    19    18    1
     6    18    14    1
     7    14    15    2
     8    14    16   am
     9     1    16    1
    10     1     2    1
    11     2     3    1
    12     3     4    1
    13     4    24    1
    14    24    25    2
    15    24    26   am
    16    26    28    1
    17    28    29    1
    18    29    30   ar
    19    30    31   ar
    20    31    32   ar
    21    32    33    1
    22    32    34   ar
    23    34    35   ar
    24    28    36    1
    25    36    37   ar
    26    37    38   ar
    27    38    39   ar
    28    39    40    1
    29    39    41   ar
    30    41    42   ar
    31     4     5    1
    32     5     7    1
    33     7     8   ar
    34     8     9   ar
    35     9    10   ar
    36    10    11    1
    37    10    12   ar
    38    12    13   ar
    39     5     6    1
    40     6     1    1
    41    35    29   ar
    42    42    36   ar
    43    13     7   ar
    44    16    17    1
    45    26    27    1
@<TRIPOS>MOLECULE
*****
 42 45 0 0 0
SMALL
GASTEIGER

@<TRIPOS>ATOM
      1 C         140.4745  145.1909  160.3891 C.3     1  UNL1        0.0719
      2 C         140.7512  145.9039  161.6794 C.3     1  UNL1        0.0201
      3 C         140.5436  145.1975  162.9863 C.3     1  UNL1        0.0111
      4 C         140.0593  143.7779  163.0028 C.3     1  UNL1        0.0806
      5 C         139.7827  143.0648  161.7124 C.3     1  UNL1        0.0326
      6 C         139.9903  143.7713  160.4056 C.3     1  UNL1        0.0244
      7 C         139.2984  141.6452  161.7289 C.ar    1  UNL1       -0.0219
      8 C         137.8453  141.3510  161.9564 C.ar    1  UNL1       -0.0038
      9 C         137.3610  139.9314  161.9728 C.ar    1  UNL1        0.0064
     10 C         138.3300  138.8060  161.7618 C.ar    1  UNL1        0.0345
     11 BR        137.8458  137.3864  161.7782 Br      1  UNL1       -0.0490
     12 C         139.7832  139.1002  161.5343 C.ar    1  UNL1        0.0064
     13 C         140.2674  140.5198  161.5178 C.ar    1  UNL1       -0.0038
     14 C         141.8117  145.4928  158.1822 C.2     1  UNL1        0.2388
     15 O         142.7338  144.3817  158.5888 O.2     1  UNL1       -0.2736
     16 N         140.6821  145.8974  159.0823 N.am    1  UNL1       -0.3048
     17 H         140.0770  146.6266  158.8154 H       1  UNL1        0.1494
     18 C         142.0193  146.1993  156.8753 C.3     1  UNL1        0.1584
     19 N         141.0485  145.9956  155.7501 N.3     1  UNL1       -0.2651
     20 C         140.8906  143.4915  155.0760 C.3     1  UNL1        0.0188
     21 C         141.2794  144.9028  154.7489 C.3     1  UNL1        0.0726
     22 C         139.8468  146.8847  155.6261 C.3     1  UNL1        0.0726
     23 C         138.5187  146.3016  155.2434 C.3     1  UNL1        0.0188
     24 C         139.8517  143.0714  164.3096 C.2     1  UNL1        0.2227
     25 O         138.5812  143.2772  165.0798 O.2     1  UNL1       -0.2751
     26 N         140.9147  142.1591  164.8461 N.am    1  UNL1       -0.2986
     27 H         141.7486  142.0241  164.3405 H       1  UNL1        0.1500
     28 C         140.7071  141.4526  166.1529 C.3     1  UNL1        0.1169
     29 C         139.8811  140.2016  166.2062 C.ar    1  UNL1       -0.0002
     30 C         140.0584  139.1407  165.1607 C.ar    1  UNL1       -0.0001
     31 C         139.2325  137.8897  165.2140 C.ar    1  UNL1        0.0294
     32 C         138.2292  137.6996  166.3128 C.ar    1  UNL1        0.1401
     33 F         137.4033  136.4486  166.3661 F       1  UNL1       -0.2042
     34 C         138.0519  138.7605  167.3583 C.ar    1  UNL1        0.0294
     35 C         138.8778  140.0115  167.3050 C.ar    1  UNL1       -0.0001
     36 C         141.3254  141.9971  167.4064 C.ar    1  UNL1       -0.0002
     37 C         140.5128  142.8514  168.3336 C.ar    1  UNL1       -0.0001
     38 C         141.1311  143.3959  169.5871 C.ar    1  UNL1        0.0294
     39 C         142.5621  143.0861  169.9133 C.ar    1  UNL1        0.1401
     40 F         143.1804  143.6305  171.1668 F       1  UNL1       -0.2042
     41 C         143.3747  142.2317  168.9861 C.ar    1  UNL1        0.0294
     42 C         142.7563  141.6872  167.7326 C.ar    1  UNL1       -0.0001
@<TRIPOS>BOND
     1    20    21    1
     2    21    19    1
     3    19    22    1
     4    22    23    1
     5    19    18    1
     6    18    14    1
     7    14    15    2
     8    14    16   am
     9     1    16    1
    10     1     2    1
    11     2     3    1
    12     3     4    1
    13     4    24    1
    14    24    25    2
    15    24    26   am
    16    26    28    1
    17    28    29    1
    18    29    30   ar
    19    30    31   ar
    20    31    32   ar
    21    32    33    1
    22    32    34   ar
    23    34    35   ar
    24    28    36    1
    25    36    37   ar
    26    37    38   ar
    27    38    39   ar
    28    39    40    1
    29    39    41   ar
    30    41    42   ar
    31     4     5    1
    32     5     7    1
    33     7     8   ar
    34     8     9   ar
    35     9    10   ar
    36    10    11    1
    37    10    12   ar
    38    12    13   ar
    39     5     6    1
    40     6     1    1
    41    35    29   ar
    42    42    36   ar
    43    13     7   ar
    44    16    17    1
    45    26    27    1
@<TRIPOS>MOLECULE
*****
 42 45 0 0 0
SMALL
GASTEIGER

@<TRIPOS>ATOM
      1 C         140.4094  145.1697  160.3421 C.3     1  UNL1        0.0719
      2 C         140.6797  145.8964  161.6261 C.3     1  UNL1        0.0201
      3 C         140.4860  145.1971  162.9389 C.3     1  UNL1        0.0111
      4 C         140.0218  143.7711  162.9677 C.3     1  UNL1        0.0806
      5 C         139.7514  143.0443  161.6837 C.3     1  UNL1        0.0326
      6 C         139.9452  143.7436  160.3709 C.3     1  UNL1        0.0244
      7 C         139.2872  141.6182  161.7125 C.ar    1  UNL1       -0.0219
      8 C         140.2636  140.5065  161.4660 C.ar    1  UNL1       -0.0038
      9 C         139.7994  139.0804  161.4948 C.ar    1  UNL1        0.0064
     10 C         138.3588  138.7660  161.7701 C.ar    1  UNL1        0.0345
     11 BR        137.8946  137.3400  161.7989 Br      1  UNL1       -0.0490
     12 C         137.3824  139.8778  162.0166 C.ar    1  UNL1        0.0064
     13 C         137.8466  141.3038  161.9878 C.ar    1  UNL1       -0.0038
     14 C         141.7639  145.5070  158.1509 C.2     1  UNL1        0.2388
     15 O         142.7310  144.4458  158.5853 O.2     1  UNL1       -0.2736
     16 N         140.6031  145.8689  159.0293 N.am    1  UNL1       -0.3048
     17 H         139.9684  146.5655  158.7442 H       1  UNL1        0.1494
     18 C         141.9577  146.2063  156.8381 C.3     1  UNL1        0.1584
     19 N         141.1667  145.7796  155.6371 N.3     1  UNL1       -0.2651
     20 C         139.6186  147.7831  155.0548 C.3     1  UNL1        0.0188
     21 C         139.7926  146.3357  155.4078 C.3     1  UNL1        0.0726
     22 C         141.7498  144.7968  154.6655 C.3     1  UNL1        0.0726
     23 C         143.0184  145.1261  153.9359 C.3     1  UNL1        0.0188
     24 C         139.8280  143.0718  164.2805 C.2     1  UNL1        0.2227
     25 O         138.6029  143.3445  165.1019 O.2     1  UNL1       -0.2751
     26 N         140.8593  142.0998  164.7719 N.am    1  UNL1       -0.2986
     27 H         141.6634  141.9207  164.2328 H       1  UNL1        0.1500
     28 C         140.6655  141.4005  166.0847 C.3     1  UNL1        0.1169
     29 C         141.2871  141.9585  167.3307 C.ar    1  UNL1       -0.0002
     30 C         140.4688  142.7995  168.2651 C.ar    1  UNL1       -0.0001
     31 C         141.0903  143.3576  169.5110 C.ar    1  UNL1        0.0294
     32 C         142.5301  143.0747  169.8225 C.ar    1  UNL1        0.1401
     33 F         143.1516  143.6327  171.0684 F       1  UNL1       -0.2042
     34 C         143.3484  142.2337  168.8881 C.ar    1  UNL1        0.0294
     35 C         142.7268  141.6756  167.6421 C.ar    1  UNL1       -0.0001
     36 C         139.8503  140.1432  166.1516 C.ar    1  UNL1       -0.0002
     37 C         140.0861  139.0428  165.1600 C.ar    1  UNL1       -0.0001
     38 C         139.2708  137.7854  165.2268 C.ar    1  UNL1        0.0294
     39 C         138.2197  137.6286  166.2854 C.ar    1  UNL1        0.1401
     40 F         137.4044  136.3713  166.3523 F       1  UNL1       -0.2042
     41 C         137.9839  138.7290  167.2771 C.ar    1  UNL1        0.0294
     42 C         138.7992  139.9863  167.2102 C.ar    1  UNL1       -0.0001
@<TRIPOS>BOND
     1    20    21    1
     2    21    19    1
     3    19    22    1
     4    22    23    1
     5    19    18    1
     6    18    14    1
     7    14    15    2
     8    14    16   am
     9     1    16    1
    10     1     2    1
    11     2     3    1
    12     3     4    1
    13     4    24    1
    14    24    25    2
    15    24    26   am
    16    26    28    1
    17    28    29    1
    18    29    30   ar
    19    30    31   ar
    20    31    32   ar
    21    32    33    1
    22    32    34   ar
    23    34    35   ar
    24    28    36    1
    25    36    37   ar
    26    37    38   ar
    27    38    39   ar
    28    39    40    1
    29    39    41   ar
    30    41    42   ar
    31     4     5    1
    32     5     7    1
    33     7     8   ar
    34     8     9   ar
    35     9    10   ar
    36    10    11    1
    37    10    12   ar
    38    12    13   ar
    39     5     6    1
    40     6     1    1
    41    35    29   ar
    42    42    36   ar
    43    13     7   ar
    44    16    17    1
    45    26    27    1
@<TRIPOS>MOLECULE
*****
 42 45 0 0 0
SMALL
GASTEIGER

@<TRIPOS>ATOM
      1 C         141.1154  145.2971  160.7455 C.3     1  UNL1        0.0719
      2 C         139.9804  145.8308  161.5682 C.3     1  UNL1        0.0201
      3 C         139.6883  145.2403  162.9158 C.3     1  UNL1        0.0111
      4 C         140.5313  144.1162  163.4408 C.3     1  UNL1        0.0806
      5 C         141.6663  143.5825  162.6181 C.3     1  UNL1        0.0326
      6 C         141.9584  144.1729  161.2705 C.3     1  UNL1        0.0244
      7 C         142.5094  142.4582  163.1430 C.ar    1  UNL1       -0.0219
      8 C         143.7323  142.7556  163.9590 C.ar    1  UNL1       -0.0038
      9 C         144.5754  141.6314  164.4839 C.ar    1  UNL1        0.0064
     10 C         144.1954  140.2098  164.1928 C.ar    1  UNL1        0.0345
     11 BR        145.0383  139.0856  164.7176 Br      1  UNL1       -0.0490
     12 C         142.9724  139.9125  163.3767 C.ar    1  UNL1        0.0064
     13 C         142.1294  141.0367  162.8518 C.ar    1  UNL1       -0.0038
     14 C         140.6772  145.3889  158.1863 C.2     1  UNL1        0.2388
     15 O         139.6549  144.2996  158.3223 O.2     1  UNL1       -0.2736
     16 N         141.4074  145.8876  159.3979 N.am    1  UNL1       -0.3048
     17 H         142.0784  146.6025  159.3087 H       1  UNL1        0.1494
     18 C         140.9693  145.9793  156.8387 C.3     1  UNL1        0.1584
     19 N         140.5765  145.2392  155.5945 N.3     1  UNL1       -0.2651
     20 C         140.7752  142.6500  155.5162 C.3     1  UNL1        0.0188
     21 C         141.3264  144.0057  155.1873 C.3     1  UNL1        0.0726
     22 C         139.4337  145.7327  154.7575 C.3     1  UNL1        0.0726
     23 C         138.0220  145.4192  155.1560 C.3     1  UNL1        0.0188
     24 C         140.2393  143.5257  164.7884 C.2     1  UNL1        0.2227
     25 O         139.2058  144.1549  165.6749 O.2     1  UNL1       -0.2751
     26 N         140.9807  142.3060  165.2494 N.am    1  UNL1       -0.2986
     27 H         141.6590  141.8930  164.6676 H       1  UNL1        0.1500
     28 C         140.6886  141.7155  166.5970 C.3     1  UNL1        0.1169
     29 C         139.6941  140.6002  166.7276 C.ar    1  UNL1       -0.0002
     30 C         139.1570  140.2285  168.0779 C.ar    1  UNL1       -0.0001
     31 C         138.1625  139.1133  168.2085 C.ar    1  UNL1        0.0294
     32 C         137.7051  138.3695  166.9888 C.ar    1  UNL1        0.1401
     33 F         136.7106  137.2543  167.1194 F       1  UNL1       -0.2042
     34 C         138.2422  138.7412  165.6384 C.ar    1  UNL1        0.0294
     35 C         139.2367  139.8565  165.5079 C.ar    1  UNL1       -0.0001
     36 C         141.3910  142.2403  167.8140 C.ar    1  UNL1       -0.0002
     37 C         142.8364  141.9127  168.0454 C.ar    1  UNL1       -0.0001
     38 C         143.5389  142.4376  169.2624 C.ar    1  UNL1        0.0294
     39 C         142.7960  143.2900  170.2481 C.ar    1  UNL1        0.1401
     40 F         143.4984  143.8148  171.4651 F       1  UNL1       -0.2042
     41 C         141.3505  143.6175  170.0166 C.ar    1  UNL1        0.0294
     42 C         140.6481  143.0927  168.7996 C.ar    1  UNL1       -0.0001
@<TRIPOS>BOND
     1    20    21    1
     2    21    19    1
     3    19    22    1
     4    22    23    1
     5    19    18    1
     6    18    14    1
     7    14    15    2
     8    14    16   am
     9     1    16    1
    10     1     2    1
    11     2     3    1
    12     3     4    1
    13     4    24    1
    14    24    25    2
    15    24    26   am
    16    26    28    1
    17    28    29    1
    18    29    30   ar
    19    30    31   ar
    20    31    32   ar
    21    32    33    1
    22    32    34   ar
    23    34    35   ar
    24    28    36    1
    25    36    37   ar
    26    37    38   ar
    27    38    39   ar
    28    39    40    1
    29    39    41   ar
    30    41    42   ar
    31     4     5    1
    32     5     7    1
    33     7     8   ar
    34     8     9   ar
    35     9    10   ar
    36    10    11    1
    37    10    12   ar
    38    12    13   ar
    39     5     6    1
    40     6     1    1
    41    35    29   ar
    42    42    36   ar
    43    13     7   ar
    44    16    17    1
    45    26    27    1
@<TRIPOS>MOLECULE
*****
 42 45 0 0 0
SMALL
GASTEIGER

@<TRIPOS>ATOM
      1 C         137.2556  141.2244  156.8112 C.3     1  UNL1        0.0719
      2 C         138.3494  141.5252  155.8298 C.3     1  UNL1        0.0201
      3 C         139.7829  141.3085  156.2147 C.3     1  UNL1        0.0111
      4 C         140.1226  140.7909  157.5809 C.3     1  UNL1        0.0806
      5 C         139.0288  140.4900  158.5623 C.3     1  UNL1        0.0326
      6 C         137.5954  140.7068  158.1774 C.3     1  UNL1        0.0244
      7 C         139.3685  139.9724  159.9286 C.ar    1  UNL1       -0.0219
      8 C         139.7335  140.9299  161.0240 C.ar    1  UNL1       -0.0038
      9 C         140.0732  140.4122  162.3903 C.ar    1  UNL1        0.0064
     10 C         140.0479  138.9371  162.6611 C.ar    1  UNL1        0.0345
     11 BR        140.3876  138.4195  164.0273 Br      1  UNL1       -0.0490
     12 C         139.6829  137.9796  161.5656 C.ar    1  UNL1        0.0064
     13 C         139.3432  138.4973  160.1994 C.ar    1  UNL1       -0.0038
     14 C         135.0896  140.3935  155.6416 C.2     1  UNL1        0.2388
     15 O         135.7906  139.1290  155.2417 O.2     1  UNL1       -0.2736
     16 N         135.8221  141.4412  156.4263 N.am    1  UNL1       -0.3048
     17 H         135.3621  142.2711  156.6887 H       1  UNL1        0.1494
     18 C         133.6561  140.6103  155.2567 C.3     1  UNL1        0.1584
     19 N         132.5592  139.9865  156.0678 N.3     1  UNL1       -0.2651
     20 C         130.8653  141.7455  155.1810 C.3     1  UNL1        0.0188
     21 C         131.2111  140.6407  156.1348 C.3     1  UNL1        0.0726
     22 C         132.8105  138.7085  156.8118 C.3     1  UNL1        0.0726
     23 C         133.1673  138.7463  158.2683 C.3     1  UNL1        0.0188
     24 C         141.5561  140.5741  157.9658 C.2     1  UNL1        0.2227
     25 O         142.1514  139.1990  157.8972 O.2     1  UNL1       -0.2751
     26 N         142.3943  141.7324  158.4192 N.am    1  UNL1       -0.2986
     27 H         142.0036  142.6350  158.4641 H       1  UNL1        0.1500
     28 C         143.8278  141.5157  158.8040 C.3     1  UNL1        0.1169
     29 C         144.9022  141.5756  157.7590 C.ar    1  UNL1       -0.0002
     30 C         144.9081  140.5859  156.6318 C.ar    1  UNL1       -0.0001
     31 C         145.9825  140.6458  155.5867 C.ar    1  UNL1        0.0294
     32 C         147.0510  141.6953  155.6689 C.ar    1  UNL1        0.1401
     33 F         148.1254  141.7552  154.6238 F       1  UNL1       -0.2042
     34 C         147.0452  142.6850  156.7961 C.ar    1  UNL1        0.0294
     35 C         145.9707  142.6251  157.8411 C.ar    1  UNL1       -0.0001
     36 C         144.1869  141.2390  160.2339 C.ar    1  UNL1       -0.0002
     37 C         143.8957  139.8954  160.8338 C.ar    1  UNL1       -0.0001
     38 C         144.2548  139.6187  162.2637 C.ar    1  UNL1        0.0294
     39 C         144.9050  140.6857  163.0936 C.ar    1  UNL1        0.1401
     40 F         145.2641  140.4090  164.5234 F       1  UNL1       -0.2042
     41 C         145.1962  142.0293  162.4936 C.ar    1  UNL1        0.0294
     42 C         144.8372  142.3059  161.0638 C.ar    1  UNL1       -0.0001
@<TRIPOS>BOND
     1    20    21    1
     2    21    19    1
     3    19    22    1
     4    22    23    1
     5    19    18    1
     6    18    14    1
     7    14    15    2
     8    14    16   am
     9     1    16    1
    10     1     2    1
    11     2     3    1
    12     3     4    1
    13     4    24    1
    14    24    25    2
    15    24    26   am
    16    26    28    1
    17    28    29    1
    18    29    30   ar
    19    30    31   ar
    20    31    32   ar
    21    32    33    1
    22    32    34   ar
    23    34    35   ar
    24    28    36    1
    25    36    37   ar
    26    37    38   ar
    27    38    39   ar
    28    39    40    1
    29    39    41   ar
    30    41    42   ar
    31     4     5    1
    32     5     7    1
    33     7     8   ar
    34     8     9   ar
    35     9    10   ar
    36    10    11    1
    37    10    12   ar
    38    12    13   ar
    39     5     6    1
    40     6     1    1
    41    35    29   ar
    42    42    36   ar
    43    13     7   ar
    44    16    17    1
    45    26    27    1
@<TRIPOS>MOLECULE
*****
 42 45 0 0 0
SMALL
GASTEIGER

@<TRIPOS>ATOM
      1 C         137.2523  141.5197  156.4890 C.3     1  UNL1        0.0719
      2 C         138.3764  141.7689  155.5277 C.3     1  UNL1        0.0201
      3 C         139.7913  141.4890  155.9394 C.3     1  UNL1        0.0111
      4 C         140.0822  140.9598  157.3124 C.3     1  UNL1        0.0806
      5 C         138.9581  140.7105  158.2737 C.3     1  UNL1        0.0326
      6 C         137.5431  140.9904  157.8620 C.3     1  UNL1        0.0244
      7 C         139.2489  140.1812  159.6469 C.ar    1  UNL1       -0.0219
      8 C         139.5606  141.1302  160.7659 C.ar    1  UNL1       -0.0038
      9 C         139.8514  140.6009  162.1391 C.ar    1  UNL1        0.0064
     10 C         139.8306  139.1227  162.3930 C.ar    1  UNL1        0.0345
     11 BR        140.1214  138.5934  163.7660 Br      1  UNL1       -0.0490
     12 C         139.5189  138.1738  161.2739 C.ar    1  UNL1        0.0064
     13 C         139.2281  138.7030  159.9008 C.ar    1  UNL1       -0.0038
     14 C         135.0154  140.7211  155.4361 C.2     1  UNL1        0.2388
     15 O         135.6085  139.3625  155.2065 O.2     1  UNL1       -0.2736
     16 N         135.8373  141.7996  156.0773 N.am    1  UNL1       -0.3048
     17 H         135.4480  142.6912  156.2280 H       1  UNL1        0.1494
     18 C         133.6005  141.0010  155.0244 C.3     1  UNL1        0.1584
     19 N         132.4729  140.7114  155.9703 N.3     1  UNL1       -0.2651
     20 C         129.8880  140.4760  156.0852 C.3     1  UNL1        0.0188
     21 C         131.1048  141.2628  155.6976 C.3     1  UNL1        0.0726
     22 C         132.7133  139.8703  157.1888 C.3     1  UNL1        0.0726
     23 C         132.7015  138.3742  157.0817 C.3     1  UNL1        0.0188
     24 C         141.4972  140.6798  157.7241 C.2     1  UNL1        0.2227
     25 O         142.0316  139.2794  157.6677 O.2     1  UNL1       -0.2751
     26 N         142.3777  141.8003  158.1923 N.am    1  UNL1       -0.2986
     27 H         142.0269  142.7194  158.2294 H       1  UNL1        0.1500
     28 C         143.7927  141.5203  158.6040 C.3     1  UNL1        0.1169
     29 C         144.1108  141.2198  160.0388 C.ar    1  UNL1       -0.0002
     30 C         144.7240  142.2770  160.9084 C.ar    1  UNL1       -0.0001
     31 C         145.0422  141.9766  162.3431 C.ar    1  UNL1        0.0294
     32 C         144.7471  140.6188  162.9083 C.ar    1  UNL1        0.1401
     33 F         145.0652  140.3183  164.3430 F       1  UNL1       -0.2042
     34 C         144.1338  139.5615  162.0387 C.ar    1  UNL1        0.0294
     35 C         143.8157  139.8621  160.6039 C.ar    1  UNL1       -0.0001
     36 C         144.8895  141.5409  157.5810 C.ar    1  UNL1       -0.0002
     37 C         144.9058  140.5241  156.4784 C.ar    1  UNL1       -0.0001
     38 C         146.0026  140.5446  155.4554 C.ar    1  UNL1        0.0294
     39 C         147.0831  141.5820  155.5349 C.ar    1  UNL1        0.1401
     40 F         148.1799  141.6026  154.5119 F       1  UNL1       -0.2042
     41 C         147.0667  142.5989  156.6376 C.ar    1  UNL1        0.0294
     42 C         145.9699  142.5783  157.6606 C.ar    1  UNL1       -0.0001
@<TRIPOS>BOND
     1    20    21    1
     2    21    19    1
     3    19    22    1
     4    22    23    1
     5    19    18    1
     6    18    14    1
     7    14    15    2
     8    14    16   am
     9     1    16    1
    10     1     2    1
    11     2     3    1
    12     3     4    1
    13     4    24    1
    14    24    25    2
    15    24    26   am
    16    26    28    1
    17    28    29    1
    18    29    30   ar
    19    30    31   ar
    20    31    32   ar
    21    32    33    1
    22    32    34   ar
    23    34    35   ar
    24    28    36    1
    25    36    37   ar
    26    37    38   ar
    27    38    39   ar
    28    39    40    1
    29    39    41   ar
    30    41    42   ar
    31     4     5    1
    32     5     7    1
    33     7     8   ar
    34     8     9   ar
    35     9    10   ar
    36    10    11    1
    37    10    12   ar
    38    12    13   ar
    39     5     6    1
    40     6     1    1
    41    35    29   ar
    42    42    36   ar
    43    13     7   ar
    44    16    17    1
    45    26    27    1
@<TRIPOS>MOLECULE
*****
 42 45 0 0 0
SMALL
GASTEIGER

@<TRIPOS>ATOM
      1 C         139.0814  139.5333  163.6444 C.3     1  UNL1        0.0719
      2 C         139.0973  138.1710  163.0170 C.3     1  UNL1        0.0201
      3 C         139.5326  138.0070  161.5909 C.3     1  UNL1        0.0111
      4 C         139.9521  139.2053  160.7923 C.3     1  UNL1        0.0806
      5 C         139.9363  140.5677  161.4197 C.3     1  UNL1        0.0326
      6 C         139.5009  140.7317  162.8457 C.3     1  UNL1        0.0244
      7 C         140.3558  141.7662  160.6210 C.ar    1  UNL1       -0.0219
      8 C         139.3702  142.4495  159.7202 C.ar    1  UNL1       -0.0038
      9 C         139.7897  143.6480  158.9215 C.ar    1  UNL1        0.0064
     10 C         141.1948  144.1630  159.0238 C.ar    1  UNL1        0.0345
     11 BR        141.6143  145.3614  158.2252 Br      1  UNL1       -0.0490
     12 C         142.1804  143.4796  159.9247 C.ar    1  UNL1        0.0064
     13 C         141.7609  142.2812  160.7233 C.ar    1  UNL1       -0.0038
     14 C         139.6672  139.7156  166.1689 C.2     1  UNL1        0.2388
     15 O         141.1239  139.5700  165.8415 O.2     1  UNL1       -0.2736
     16 N         138.6461  139.6973  165.0704 N.am    1  UNL1       -0.3048
     17 H         137.6901  139.7929  165.2853 H       1  UNL1        0.1494
     18 C         139.2319  139.8796  167.5950 C.3     1  UNL1        0.1584
     19 N         140.1159  140.5978  168.5712 N.3     1  UNL1       -0.2651
     20 C         142.0808  139.5194  169.8850 C.3     1  UNL1        0.0188
     21 C         140.6287  139.8822  169.7856 C.3     1  UNL1        0.0726
     22 C         140.4870  142.0315  168.3328 C.3     1  UNL1        0.0726
     23 C         140.3509  143.0353  169.4392 C.3     1  UNL1        0.0188
     24 C         140.3875  139.0413  159.3663 C.2     1  UNL1        0.2227
     25 O         139.3865  139.1717  158.2568 O.2     1  UNL1       -0.2751
     26 N         141.8238  138.7469  159.0497 N.am    1  UNL1       -0.2986
     27 H         142.4808  138.6613  159.7779 H       1  UNL1        0.1500
     28 C         142.2592  138.5829  157.6237 C.3     1  UNL1        0.1169
     29 C         142.8962  139.7304  156.8973 C.ar    1  UNL1       -0.0002
     30 C         142.3528  141.1184  157.0646 C.ar    1  UNL1       -0.0001
     31 C         142.9898  142.2659  156.3383 C.ar    1  UNL1        0.0294
     32 C         144.1703  142.0253  155.4446 C.ar    1  UNL1        0.1401
     33 F         144.8073  143.1727  154.7183 F       1  UNL1       -0.2042
     34 C         144.7138  140.6373  155.2773 C.ar    1  UNL1        0.0294
     35 C         144.0767  139.4898  156.0037 C.ar    1  UNL1       -0.0001
     36 C         142.0575  137.2716  156.9240 C.ar    1  UNL1       -0.0002
     37 C         140.9382  137.1118  155.9384 C.ar    1  UNL1       -0.0001
     38 C         140.7364  135.8004  155.2386 C.ar    1  UNL1        0.0294
     39 C         141.6541  134.6488  155.5246 C.ar    1  UNL1        0.1401
     40 F         141.4524  133.3374  154.8249 F       1  UNL1       -0.2042
     41 C         142.7734  134.8086  156.5103 C.ar    1  UNL1        0.0294
     42 C         142.9751  136.1200  157.2100 C.ar    1  UNL1       -0.0001
@<TRIPOS>BOND
     1    20    21    1
     2    21    19    1
     3    19    22    1
     4    22    23    1
     5    19    18    1
     6    18    14    1
     7    14    15    2
     8    14    16   am
     9     1    16    1
    10     1     2    1
    11     2     3    1
    12     3     4    1
    13     4    24    1
    14    24    25    2
    15    24    26   am
    16    26    28    1
    17    28    29    1
    18    29    30   ar
    19    30    31   ar
    20    31    32   ar
    21    32    33    1
    22    32    34   ar
    23    34    35   ar
    24    28    36    1
    25    36    37   ar
    26    37    38   ar
    27    38    39   ar
    28    39    40    1
    29    39    41   ar
    30    41    42   ar
    31     4     5    1
    32     5     7    1
    33     7     8   ar
    34     8     9   ar
    35     9    10   ar
    36    10    11    1
    37    10    12   ar
    38    12    13   ar
    39     5     6    1
    40     6     1    1
    41    35    29   ar
    42    42    36   ar
    43    13     7   ar
    44    16    17    1
    45    26    27    1
@<TRIPOS>MOLECULE
*****
 42 45 0 0 0
SMALL
GASTEIGER

@<TRIPOS>ATOM
      1 C         143.1553  136.6814  156.4773 C.3     1  UNL1        0.0719
      2 C         142.8978  137.8935  155.6321 C.3     1  UNL1        0.0201
      3 C         142.4705  139.1794  156.2754 C.3     1  UNL1        0.0111
      4 C         142.3005  139.2532  157.7639 C.3     1  UNL1        0.0806
      5 C         142.5580  138.0410  158.6091 C.3     1  UNL1        0.0326
      6 C         142.9854  136.7552  157.9658 C.3     1  UNL1        0.0244
      7 C         142.3881  138.1148  160.0977 C.ar    1  UNL1       -0.0219
      8 C         141.0200  138.0050  160.7027 C.ar    1  UNL1       -0.0038
      9 C         140.8501  138.0787  162.1913 C.ar    1  UNL1        0.0064
     10 C         142.0483  138.2622  163.0747 C.ar    1  UNL1        0.0345
     11 BR        141.8785  138.3359  164.5632 Br      1  UNL1       -0.0490
     12 C         143.4165  138.3719  162.4696 C.ar    1  UNL1        0.0064
     13 C         143.5864  138.2982  160.9811 C.ar    1  UNL1       -0.0038
     14 C         142.5550  134.4676  155.2573 C.2     1  UNL1        0.2388
     15 O         141.0998  134.8255  155.3238 O.2     1  UNL1       -0.2736
     16 N         143.5827  135.3955  155.8340 N.am    1  UNL1       -0.3048
     17 H         144.5378  135.1606  155.7903 H       1  UNL1        0.1494
     18 C         142.9823  133.1817  154.6140 C.3     1  UNL1        0.1584
     19 N         143.2584  131.9748  155.4610 N.3     1  UNL1       -0.2651
     20 C         144.8015  132.3638  157.5147 C.3     1  UNL1        0.0188
     21 C         144.5904  131.8191  156.1332 C.3     1  UNL1        0.0726
     22 C         142.2027  130.9238  155.6358 C.3     1  UNL1        0.0726
     23 C         140.9056  131.0323  154.8902 C.3     1  UNL1        0.0188
     24 C         141.8732  140.5391  158.4072 C.2     1  UNL1        0.2227
     25 O         142.9032  141.5404  158.8388 O.2     1  UNL1       -0.2751
     26 N         140.4157  140.8236  158.6190 N.am    1  UNL1       -0.2986
     27 H         139.7397  140.1664  158.3357 H       1  UNL1        0.1500
     28 C         139.9884  142.1095  159.2623 C.3     1  UNL1        0.1169
     29 C         139.9622  143.3769  158.4603 C.ar    1  UNL1       -0.0002
     30 C         139.3289  143.3911  157.1006 C.ar    1  UNL1       -0.0001
     31 C         139.3028  144.6585  156.2987 C.ar    1  UNL1        0.0294
     32 C         139.9100  145.9116  156.8564 C.ar    1  UNL1        0.1401
     33 F         139.8838  147.1789  156.0544 F       1  UNL1       -0.2042
     34 C         140.5433  145.8974  158.2160 C.ar    1  UNL1        0.0294
     35 C         140.5694  144.6300  159.0180 C.ar    1  UNL1       -0.0001
     36 C         139.5871  142.1280  160.7075 C.ar    1  UNL1       -0.0002
     37 C         138.2088  142.5731  161.0974 C.ar    1  UNL1       -0.0001
     38 C         137.8075  142.5916  162.5427 C.ar    1  UNL1        0.0294
     39 C         138.7845  142.1651  163.5979 C.ar    1  UNL1        0.1401
     40 F         138.3833  142.1836  165.0431 F       1  UNL1       -0.2042
     41 C         140.1629  141.7200  163.2078 C.ar    1  UNL1        0.0294
     42 C         140.5642  141.7015  161.7626 C.ar    1  UNL1       -0.0001
@<TRIPOS>BOND
     1    20    21    1
     2    21    19    1
     3    19    22    1
     4    22    23    1
     5    19    18    1
     6    18    14    1
     7    14    15    2
     8    14    16   am
     9     1    16    1
    10     1     2    1
    11     2     3    1
    12     3     4    1
    13     4    24    1
    14    24    25    2
    15    24    26   am
    16    26    28    1
    17    28    29    1
    18    29    30   ar
    19    30    31   ar
    20    31    32   ar
    21    32    33    1
    22    32    34   ar
    23    34    35   ar
    24    28    36    1
    25    36    37   ar
    26    37    38   ar
    27    38    39   ar
    28    39    40    1
    29    39    41   ar
    30    41    42   ar
    31     4     5    1
    32     5     7    1
    33     7     8   ar
    34     8     9   ar
    35     9    10   ar
    36    10    11    1
    37    10    12   ar
    38    12    13   ar
    39     5     6    1
    40     6     1    1
    41    35    29   ar
    42    42    36   ar
    43    13     7   ar
    44    16    17    1
    45    26    27    1
