@<TRIPOS>MOLECULE
*****
 32 36 0 0 0
SMALL
GASTEIGER

@<TRIPOS>ATOM
      1 C         141.4689  142.0497  160.5766 C.ar    1  UNL1        0.0537
      2 C         140.8170  140.8898  159.8842 C.ar    1  UNL1        0.0060
      3 C         140.1567  139.8103  160.6895 C.ar    1  UNL1        0.0173
      4 C         140.1484  139.8908  162.1874 C.ar    1  UNL1        0.0594
      5 C         140.8003  141.0507  162.8798 C.ar    1  UNL1        0.0130
      6 C         141.4605  142.1302  162.0744 C.ar    1  UNL1        0.0057
      7 C         140.6345  140.8606  164.3584 C.ar    1  UNL1       -0.0091
      8 C         139.8802  139.5831  164.5799 C.ar    1  UNL1        0.0331
      9 N         139.5797  138.9837  163.2381 N.ar    1  UNL1       -0.3289
     10 C         138.8404  137.7023  162.9904 C.3     1  UNL1        0.1301
     11 C         139.5644  139.1307  165.9747 C.3     1  UNL1        0.0435
     12 C         140.0029  139.9559  167.1482 C.3     1  UNL1        0.0066
     13 C         140.7572  141.2333  166.9267 C.3     1  UNL1        0.0049
     14 C         141.0731  141.6857  165.5318 C.3     1  UNL1        0.0275
     15 C         141.1958  142.0585  168.1001 C.3     1  UNL1        0.0053
     16 C         142.5582  141.8541  168.6933 C.3     1  UNL1        0.0322
     17 C         142.9968  142.6792  169.8667 C.3     1  UNL1        0.1422
     18 O         142.0729  143.7086  170.4469 O.3     1  UNL1       -0.3538
     19 C         140.7104  143.9130  169.8537 C.3     1  UNL1        0.1422
     20 C         140.2719  143.0879  168.6803 C.3     1  UNL1        0.0322
     21 C         142.0404  145.4671  158.6412 C.3     1  UNL1        0.1157
     22 N         141.3801  144.3876  159.4466 N.am    1  UNL1       -0.2660
     23 C         142.1293  143.1293  159.7712 C.2     1  UNL1        0.2494
     24 O         143.5388  142.9505  159.2903 O.2     1  UNL1       -0.2699
     25 C         139.9705  144.5664  159.9275 C.3     1  UNL1        0.1793
     26 C         139.7032  144.8612  161.3738 C.2     1  UNL1        0.2427
     27 O         140.3574  146.0393  162.0325 O.2     1  UNL1       -0.2732
     28 N         138.7815  143.9778  162.1613 N.am    1  UNL1       -0.3046
     29 H         138.3521  143.2045  161.7289 H       1  UNL1        0.1494
     30 C         138.5141  144.2725  163.6075 C.3     1  UNL1        0.0717
     31 C         137.5829  144.2687  164.7834 C.3     1  UNL1        0.0213
     32 C         138.9822  144.7867  164.9366 C.3     1  UNL1        0.0213
@<TRIPOS>BOND
     1    21    22    1
     2    22    25    1
     3    25    26    1
     4    26    27    2
     5    26    28   am
     6    28    30    1
     7    30    31    1
     8    31    32    1
     9    22    23   am
    10    23    24    2
    11    23     1    1
    12     1     2   ar
    13     2     3   ar
    14     3     4   ar
    15     4     5   ar
    16     5     6   ar
    17     5     7   ar
    18     7     8   ar
    19     8     9   ar
    20     9    10    1
    21     8    11    1
    22    11    12    1
    23    12    13    1
    24    13    15    1
    25    15    16    1
    26    16    17    1
    27    17    18    1
    28    18    19    1
    29    19    20    1
    30    13    14    1
    31    32    30    1
    32     6     1   ar
    33    14     7    1
    34     9     4   ar
    35    20    15    1
    36    28    29    1
@<TRIPOS>MOLECULE
*****
 32 36 0 0 0
SMALL
GASTEIGER

@<TRIPOS>ATOM
      1 C         140.1840  142.6409  160.8211 C.ar    1  UNL1        0.0537
      2 C         139.6452  141.4198  160.1366 C.ar    1  UNL1        0.0060
      3 C         139.3237  140.1922  160.9362 C.ar    1  UNL1        0.0173
      4 C         139.5410  140.1857  162.4204 C.ar    1  UNL1        0.0594
      5 C         140.0797  141.4068  163.1049 C.ar    1  UNL1        0.0130
      6 C         140.4013  142.6344  162.3052 C.ar    1  UNL1        0.0057
      7 C         140.1889  141.1064  164.5704 C.ar    1  UNL1       -0.0091
      8 C         139.7177  139.6997  164.7917 C.ar    1  UNL1        0.0331
      9 N         139.3172  139.1306  163.4629 N.ar    1  UNL1       -0.3289
     10 C         138.7861  137.7490  163.2194 C.3     1  UNL1        0.1301
     11 C         139.7141  139.1187  166.1746 C.3     1  UNL1        0.0435
     12 C         140.1818  139.9444  167.3363 C.3     1  UNL1        0.0066
     13 C         140.6531  141.3512  167.1150 C.3     1  UNL1        0.0049
     14 C         140.6567  141.9322  165.7321 C.3     1  UNL1        0.0275
     15 C         141.1208  142.1769  168.2766 C.3     1  UNL1        0.0053
     16 C         140.2264  143.2336  168.8540 C.3     1  UNL1        0.0322
     17 C         140.6942  144.0594  170.0156 C.3     1  UNL1        0.1422
     18 O         142.0562  143.8285  170.5998 O.3     1  UNL1       -0.3538
     19 C         142.9506  142.7717  170.0225 C.3     1  UNL1        0.1422
     20 C         142.4830  141.9460  168.8609 C.3     1  UNL1        0.0322
     21 C         142.1668  145.2311  158.5605 C.3     1  UNL1        0.1157
     22 N         141.8452  144.0034  159.3602 N.am    1  UNL1       -0.2660
     23 C         140.5056  143.8686  160.0214 C.2     1  UNL1        0.2494
     24 O         139.4875  144.9615  159.8830 O.2     1  UNL1       -0.2699
     25 C         142.8633  142.9106  159.4985 C.3     1  UNL1        0.1793
     26 C         143.6080  142.7384  160.7892 C.2     1  UNL1        0.2427
     27 O         143.9038  143.9311  161.6493 O.2     1  UNL1       -0.2732
     28 N         144.0571  141.3734  161.2197 N.am    1  UNL1       -0.3046
     29 H         143.8630  140.5906  160.6551 H       1  UNL1        0.1494
     30 C         144.8018  141.2012  162.5103 C.3     1  UNL1        0.0717
     31 C         145.0797  140.4103  163.7542 C.3     1  UNL1        0.0213
     32 C         145.8138  141.6938  163.5018 C.3     1  UNL1        0.0213
@<TRIPOS>BOND
     1    21    22    1
     2    22    25    1
     3    25    26    1
     4    26    27    2
     5    26    28   am
     6    28    30    1
     7    30    31    1
     8    31    32    1
     9    22    23   am
    10    23    24    2
    11    23     1    1
    12     1     2   ar
    13     2     3   ar
    14     3     4   ar
    15     4     5   ar
    16     5     6   ar
    17     5     7   ar
    18     7     8   ar
    19     8     9   ar
    20     9    10    1
    21     8    11    1
    22    11    12    1
    23    12    13    1
    24    13    15    1
    25    15    16    1
    26    16    17    1
    27    17    18    1
    28    18    19    1
    29    19    20    1
    30    13    14    1
    31    32    30    1
    32     6     1   ar
    33    14     7    1
    34     9     4   ar
    35    20    15    1
    36    28    29    1
@<TRIPOS>MOLECULE
*****
 32 36 0 0 0
SMALL
GASTEIGER

@<TRIPOS>ATOM
      1 C         140.6727  142.2335  160.8279 C.ar    1  UNL1        0.0537
      2 C         140.6269  140.9079  160.1276 C.ar    1  UNL1        0.0060
      3 C         140.7814  139.6392  160.9128 C.ar    1  UNL1        0.0173
      4 C         140.9816  139.6961  162.3982 C.ar    1  UNL1        0.0594
      5 C         141.0274  141.0218  163.0986 C.ar    1  UNL1        0.0130
      6 C         140.8729  142.2905  162.3134 C.ar    1  UNL1        0.0057
      7 C         141.2362  140.7660  164.5618 C.ar    1  UNL1       -0.0091
      8 C         141.3195  139.2823  164.7658 C.ar    1  UNL1        0.0331
      9 N         141.1622  138.6210  163.4286 N.ar    1  UNL1       -0.3289
     10 C         141.1819  137.1441  163.1677 C.3     1  UNL1        0.1301
     11 C         141.5279  138.7251  166.1427 C.3     1  UNL1        0.0435
     12 C         141.6531  139.6516  167.3158 C.3     1  UNL1        0.0066
     13 C         141.5698  141.1354  167.1118 C.3     1  UNL1        0.0049
     14 C         141.3613  141.6926  165.7347 C.3     1  UNL1        0.0275
     15 C         141.6949  142.0619  168.2848 C.3     1  UNL1        0.0053
     16 C         142.9692  142.1038  169.0748 C.3     1  UNL1        0.0322
     17 C         143.0943  143.0303  170.2478 C.3     1  UNL1        0.1422
     18 O         141.9451  143.9149  170.6307 O.3     1  UNL1       -0.3538
     19 C         140.6708  143.8730  169.8406 C.3     1  UNL1        0.1422
     20 C         140.5456  142.9466  168.6677 C.3     1  UNL1        0.0322
     21 C         141.5446  145.3600  158.5441 C.3     1  UNL1        0.1157
     22 N         141.6990  144.0912  159.3292 N.am    1  UNL1       -0.2660
     23 C         140.5183  143.5023  160.0428 C.2     1  UNL1        0.2494
     24 O         139.1831  144.1822  159.9712 O.2     1  UNL1       -0.2699
     25 C         143.0342  143.4113  159.4008 C.3     1  UNL1        0.1793
     26 C         143.6494  143.1053  160.7342 C.2     1  UNL1        0.2427
     27 O         143.7547  144.1794  161.7759 O.2     1  UNL1       -0.2732
     28 N         144.1594  141.7251  161.0259 N.am    1  UNL1       -0.3046
     29 H         144.0903  141.0201  160.3422 H       1  UNL1        0.1494
     30 C         144.7746  141.4190  162.3592 C.3     1  UNL1        0.0717
     31 C         144.7941  140.6191  163.6279 C.3     1  UNL1        0.0213
     32 C         145.8207  141.6887  163.3998 C.3     1  UNL1        0.0213
@<TRIPOS>BOND
     1    21    22    1
     2    22    25    1
     3    25    26    1
     4    26    27    2
     5    26    28   am
     6    28    30    1
     7    30    31    1
     8    31    32    1
     9    22    23   am
    10    23    24    2
    11    23     1    1
    12     1     2   ar
    13     2     3   ar
    14     3     4   ar
    15     4     5   ar
    16     5     6   ar
    17     5     7   ar
    18     7     8   ar
    19     8     9   ar
    20     9    10    1
    21     8    11    1
    22    11    12    1
    23    12    13    1
    24    13    15    1
    25    15    16    1
    26    16    17    1
    27    17    18    1
    28    18    19    1
    29    19    20    1
    30    13    14    1
    31    32    30    1
    32     6     1   ar
    33    14     7    1
    34     9     4   ar
    35    20    15    1
    36    28    29    1
@<TRIPOS>MOLECULE
*****
 32 36 0 0 0
SMALL
GASTEIGER

@<TRIPOS>ATOM
      1 C         142.2225  140.9566  161.0708 C.ar    1  UNL1        0.0537
      2 C         141.8404  141.9938  160.0568 C.ar    1  UNL1        0.0060
      3 C         141.0865  143.2182  160.4839 C.ar    1  UNL1        0.0173
      4 C         140.7147  143.4054  161.9250 C.ar    1  UNL1        0.0594
      5 C         141.0968  142.3682  162.9390 C.ar    1  UNL1        0.0130
      6 C         141.8507  141.1438  162.5119 C.ar    1  UNL1        0.0057
      7 C         140.5968  142.8228  164.2781 C.ar    1  UNL1       -0.0091
      8 C         139.9056  144.1409  164.0918 C.ar    1  UNL1        0.0331
      9 N         139.9784  144.5010  162.6375 N.ar    1  UNL1       -0.3289
     10 C         139.4141  145.7393  162.0064 C.3     1  UNL1        0.1301
     11 C         139.2991  144.8430  165.2705 C.3     1  UNL1        0.0435
     12 C         139.3839  144.2269  166.6356 C.3     1  UNL1        0.0066
     13 C         140.0751  142.9088  166.8219 C.3     1  UNL1        0.0049
     14 C         140.6815  142.2067  165.6431 C.3     1  UNL1        0.0275
     15 C         140.1599  142.2927  168.1869 C.3     1  UNL1        0.0053
     16 C         140.0006  140.8103  168.3519 C.3     1  UNL1        0.0322
     17 C         140.0854  140.1942  169.7169 C.3     1  UNL1        0.1422
     18 O         140.3294  141.0605  170.9168 O.3     1  UNL1       -0.3538
     19 C         140.4886  142.5428  170.7518 C.3     1  UNL1        0.1422
     20 C         140.4039  143.1589  169.3869 C.3     1  UNL1        0.0322
     21 C         143.0168  137.1948  160.0866 C.3     1  UNL1        0.1157
     22 N         142.2629  138.4193  160.5137 N.am    1  UNL1       -0.2660
     23 C         142.9765  139.7322  160.6437 C.2     1  UNL1        0.2494
     24 O         144.4441  139.8208  160.3465 O.2     1  UNL1       -0.2699
     25 C         140.7953  138.3307  160.8109 C.3     1  UNL1        0.1793
     26 C         140.3280  138.0776  162.2137 C.2     1  UNL1        0.2427
     27 O         140.8518  136.8976  162.9773 O.2     1  UNL1       -0.2732
     28 N         139.3369  139.0046  162.8528 N.am    1  UNL1       -0.3046
     29 H         138.9931  139.7791  162.3516 H       1  UNL1        0.1494
     30 C         138.8696  138.7516  164.2555 C.3     1  UNL1        0.0717
     31 C         138.6819  137.8167  165.4134 C.3     1  UNL1        0.0213
     32 C         138.2480  139.2481  165.5271 C.3     1  UNL1        0.0213
@<TRIPOS>BOND
     1    21    22    1
     2    22    25    1
     3    25    26    1
     4    26    27    2
     5    26    28   am
     6    28    30    1
     7    30    31    1
     8    31    32    1
     9    22    23   am
    10    23    24    2
    11    23     1    1
    12     1     2   ar
    13     2     3   ar
    14     3     4   ar
    15     4     5   ar
    16     5     6   ar
    17     5     7   ar
    18     7     8   ar
    19     8     9   ar
    20     9    10    1
    21     8    11    1
    22    11    12    1
    23    12    13    1
    24    13    15    1
    25    15    16    1
    26    16    17    1
    27    17    18    1
    28    18    19    1
    29    19    20    1
    30    13    14    1
    31    32    30    1
    32     6     1   ar
    33    14     7    1
    34     9     4   ar
    35    20    15    1
    36    28    29    1
@<TRIPOS>MOLECULE
*****
 32 36 0 0 0
SMALL
GASTEIGER

@<TRIPOS>ATOM
      1 C         140.5056  140.4087  160.0862 C.ar    1  UNL1        0.0537
      2 C         140.0949  141.6459  159.3441 C.ar    1  UNL1        0.0060
      3 C         139.7832  142.9043  160.0985 C.ar    1  UNL1        0.0173
      4 C         139.8822  142.9255  161.5951 C.ar    1  UNL1        0.0594
      5 C         140.2929  141.6884  162.3372 C.ar    1  UNL1        0.0130
      6 C         140.6046  140.4300  161.5828 C.ar    1  UNL1        0.0057
      7 C         140.3030  142.0088  163.8026 C.ar    1  UNL1       -0.0091
      8 C         139.8985  143.4439  163.9661 C.ar    1  UNL1        0.0331
      9 N         139.6385  144.0106  162.6018 N.ar    1  UNL1       -0.3289
     10 C         139.2099  145.4155  162.2976 C.3     1  UNL1        0.1301
     11 C         139.8193  144.0494  165.3362 C.3     1  UNL1        0.0435
     12 C         140.1445  143.2197  166.5428 C.3     1  UNL1        0.0066
     13 C         140.5490  141.7845  166.3793 C.3     1  UNL1        0.0049
     14 C         140.6282  141.1790  165.0091 C.3     1  UNL1        0.0275
     15 C         140.8742  140.9548  167.5858 C.3     1  UNL1        0.0053
     16 C         139.9288  140.9211  168.7499 C.3     1  UNL1        0.0322
     17 C         140.2540  140.0914  169.9564 C.3     1  UNL1        0.1422
     18 O         141.5246  139.2954  169.9989 O.3     1  UNL1       -0.3538
     19 C         142.4700  139.3290  168.8349 C.3     1  UNL1        0.1422
     20 C         142.1448  140.1587  167.6283 C.3     1  UNL1        0.0322
     21 C         142.5467  137.5714  158.2063 C.3     1  UNL1        0.1157
     22 N         142.2350  138.8298  158.9608 N.am    1  UNL1       -0.2660
     23 C         140.8174  139.1503  159.3317 C.2     1  UNL1        0.2494
     24 O         139.7114  138.2123  158.9483 O.2     1  UNL1       -0.2699
     25 C         143.3409  139.7678  159.3442 C.3     1  UNL1        0.1793
     26 C         143.9377  139.7017  160.7189 C.2     1  UNL1        0.2427
     27 O         144.1329  138.3738  161.3886 O.2     1  UNL1       -0.2732
     28 N         144.3391  140.9634  161.4238 N.am    1  UNL1       -0.3046
     29 H         144.2109  141.8349  160.9842 H       1  UNL1        0.1494
     30 C         144.9358  140.8973  162.7983 C.3     1  UNL1        0.0717
     31 C         145.7278  141.5324  163.9026 C.3     1  UNL1        0.0213
     32 C         145.1775  140.1477  164.0749 C.3     1  UNL1        0.0213
@<TRIPOS>BOND
     1    21    22    1
     2    22    25    1
     3    25    26    1
     4    26    27    2
     5    26    28   am
     6    28    30    1
     7    30    31    1
     8    31    32    1
     9    22    23   am
    10    23    24    2
    11    23     1    1
    12     1     2   ar
    13     2     3   ar
    14     3     4   ar
    15     4     5   ar
    16     5     6   ar
    17     5     7   ar
    18     7     8   ar
    19     8     9   ar
    20     9    10    1
    21     8    11    1
    22    11    12    1
    23    12    13    1
    24    13    15    1
    25    15    16    1
    26    16    17    1
    27    17    18    1
    28    18    19    1
    29    19    20    1
    30    13    14    1
    31    32    30    1
    32     6     1   ar
    33    14     7    1
    34     9     4   ar
    35    20    15    1
    36    28    29    1
@<TRIPOS>MOLECULE
*****
 32 36 0 0 0
SMALL
GASTEIGER

@<TRIPOS>ATOM
      1 C         140.0937  142.9786  160.7341 C.ar    1  UNL1        0.0537
      2 C         139.4930  141.8109  160.0091 C.ar    1  UNL1        0.0060
      3 C         139.1286  140.5667  160.7634 C.ar    1  UNL1        0.0173
      4 C         139.3650  140.4901  162.2427 C.ar    1  UNL1        0.0594
      5 C         139.9658  141.6578  162.9677 C.ar    1  UNL1        0.0130
      6 C         140.3301  142.9020  162.2133 C.ar    1  UNL1        0.0057
      7 C         140.0811  141.2933  164.4181 C.ar    1  UNL1       -0.0091
      8 C         139.5516  139.9003  164.5896 C.ar    1  UNL1        0.0331
      9 N         139.1090  139.4039  163.2451 N.ar    1  UNL1       -0.3289
     10 C         138.5148  138.0577  162.9541 C.3     1  UNL1        0.1301
     11 C         139.5410  139.2640  165.9479 C.3     1  UNL1        0.0435
     12 C         140.0598  140.0205  167.1347 C.3     1  UNL1        0.0066
     13 C         140.5892  141.4135  166.9632 C.3     1  UNL1        0.0049
     14 C         140.5999  142.0499  165.6049 C.3     1  UNL1        0.0275
     15 C         141.1080  142.1701  168.1500 C.3     1  UNL1        0.0053
     16 C         140.2417  143.1914  168.8255 C.3     1  UNL1        0.0322
     17 C         140.7605  143.9479  170.0123 C.3     1  UNL1        0.1422
     18 O         142.1455  143.6832  170.5235 O.3     1  UNL1       -0.3538
     19 C         143.0119  142.6619  169.8480 C.3     1  UNL1        0.1422
     20 C         142.4932  141.9054  168.6612 C.3     1  UNL1        0.0322
     21 C         141.9126  145.4280  158.1958 C.3     1  UNL1        0.1157
     22 N         141.5482  144.1837  158.9501 N.am    1  UNL1       -0.2660
     23 C         140.4581  144.2229  159.9797 C.2     1  UNL1        0.2494
     24 O         139.7324  145.5065  160.2551 O.2     1  UNL1       -0.2699
     25 C         142.2739  142.9001  158.6748 C.3     1  UNL1        0.1793
     26 C         143.5109  142.9051  157.8262 C.2     1  UNL1        0.2427
     27 O         143.4139  143.2105  156.3608 O.2     1  UNL1       -0.2732
     28 N         144.8448  142.6046  158.4430 N.am    1  UNL1       -0.3046
     29 H         144.9084  142.4042  159.4048 H       1  UNL1        0.1494
     30 C         146.0817  142.6095  157.5945 C.3     1  UNL1        0.0717
     31 C         147.5017  143.0379  157.3706 C.3     1  UNL1        0.0213
     32 C         146.8041  142.1898  156.3488 C.3     1  UNL1        0.0213
@<TRIPOS>BOND
     1    21    22    1
     2    22    25    1
     3    25    26    1
     4    26    27    2
     5    26    28   am
     6    28    30    1
     7    30    31    1
     8    31    32    1
     9    22    23   am
    10    23    24    2
    11    23     1    1
    12     1     2   ar
    13     2     3   ar
    14     3     4   ar
    15     4     5   ar
    16     5     6   ar
    17     5     7   ar
    18     7     8   ar
    19     8     9   ar
    20     9    10    1
    21     8    11    1
    22    11    12    1
    23    12    13    1
    24    13    15    1
    25    15    16    1
    26    16    17    1
    27    17    18    1
    28    18    19    1
    29    19    20    1
    30    13    14    1
    31    32    30    1
    32     6     1   ar
    33    14     7    1
    34     9     4   ar
    35    20    15    1
    36    28    29    1
@<TRIPOS>MOLECULE
*****
 32 36 0 0 0
SMALL
GASTEIGER

@<TRIPOS>ATOM
      1 C         143.7863  142.5375  160.6414 C.ar    1  UNL1        0.0537
      2 C         142.3900  142.0200  160.4614 C.ar    1  UNL1        0.0060
      3 C         141.9554  141.4821  159.1303 C.ar    1  UNL1        0.0173
      4 C         142.9171  141.4619  157.9793 C.ar    1  UNL1        0.0594
      5 C         144.3133  141.9794  158.1594 C.ar    1  UNL1        0.0130
      6 C         144.7480  142.5173  159.4904 C.ar    1  UNL1        0.0057
      7 C         145.0342  141.8329  156.8521 C.ar    1  UNL1       -0.0091
      8 C         144.0834  141.2247  155.8641 C.ar    1  UNL1        0.0331
      9 N         142.7749  140.9954  156.5607 N.ar    1  UNL1       -0.3289
     10 C         141.5410  140.4036  155.9466 C.3     1  UNL1        0.1301
     11 C         144.5319  140.9584  154.4577 C.3     1  UNL1        0.0435
     12 C         145.9313  141.3002  154.0393 C.3     1  UNL1        0.0066
     13 C         146.8821  141.9083  155.0274 C.3     1  UNL1        0.0049
     14 C         146.4335  142.1747  156.4338 C.3     1  UNL1        0.0275
     15 C         148.2815  142.2501  154.6091 C.3     1  UNL1        0.0053
     16 C         149.4489  141.6408  155.3272 C.3     1  UNL1        0.0322
     17 C         150.8482  141.9826  154.9089 C.3     1  UNL1        0.1422
     18 O         151.0801  142.9336  153.7725 O.3     1  UNL1       -0.3538
     19 C         149.9127  143.5430  153.0543 C.3     1  UNL1        0.1422
     20 C         148.5134  143.2013  153.4726 C.3     1  UNL1        0.0322
     21 C         145.2208  142.6865  164.3388 C.3     1  UNL1        0.1157
     22 N         144.7861  142.1486  163.0077 N.am    1  UNL1       -0.2660
     23 C         144.2210  143.0754  161.9725 C.2     1  UNL1        0.2494
     24 O         144.0905  144.5402  162.2684 O.2     1  UNL1       -0.2699
     25 C         144.9166  140.6839  162.7118 C.3     1  UNL1        0.1793
     26 C         144.0370  139.6949  163.4177 C.2     1  UNL1        0.2427
     27 O         144.3832  139.2388  164.8040 O.2     1  UNL1       -0.2732
     28 N         142.8111  139.1620  162.7371 N.am    1  UNL1       -0.3046
     29 H         142.5838  139.4613  161.8271 H       1  UNL1        0.1494
     30 C         141.9314  138.1730  163.4429 C.3     1  UNL1        0.0717
     31 C         140.8734  137.1108  163.3965 C.3     1  UNL1        0.0213
     32 C         141.4659  137.5223  164.7116 C.3     1  UNL1        0.0213
@<TRIPOS>BOND
     1    21    22    1
     2    22    25    1
     3    25    26    1
     4    26    27    2
     5    26    28   am
     6    28    30    1
     7    30    31    1
     8    31    32    1
     9    22    23   am
    10    23    24    2
    11    23     1    1
    12     1     2   ar
    13     2     3   ar
    14     3     4   ar
    15     4     5   ar
    16     5     6   ar
    17     5     7   ar
    18     7     8   ar
    19     8     9   ar
    20     9    10    1
    21     8    11    1
    22    11    12    1
    23    12    13    1
    24    13    15    1
    25    15    16    1
    26    16    17    1
    27    17    18    1
    28    18    19    1
    29    19    20    1
    30    13    14    1
    31    32    30    1
    32     6     1   ar
    33    14     7    1
    34     9     4   ar
    35    20    15    1
    36    28    29    1
@<TRIPOS>MOLECULE
*****
 32 36 0 0 0
SMALL
GASTEIGER

@<TRIPOS>ATOM
      1 C         141.6575  139.2033  162.4671 C.ar    1  UNL1        0.0537
      2 C         142.1754  140.6013  162.6320 C.ar    1  UNL1        0.0060
      3 C         142.8535  141.2901  161.4849 C.ar    1  UNL1        0.0173
      4 C         143.0135  140.5809  160.1729 C.ar    1  UNL1        0.0594
      5 C         142.4955  139.1829  160.0080 C.ar    1  UNL1        0.0130
      6 C         141.8175  138.4941  161.1551 C.ar    1  UNL1        0.0057
      7 C         142.7957  138.7397  158.6067 C.ar    1  UNL1       -0.0091
      8 C         143.4992  139.8638  157.9057 C.ar    1  UNL1        0.0331
      9 N         143.6338  141.0017  158.8736 N.ar    1  UNL1       -0.3289
     10 C         144.2760  142.3277  158.5918 C.3     1  UNL1        0.1301
     11 C         143.9262  139.7059  156.4764 C.3     1  UNL1        0.0435
     12 C         143.6498  138.4239  155.7482 C.3     1  UNL1        0.0066
     13 C         142.9463  137.2998  156.4493 C.3     1  UNL1        0.0049
     14 C         142.5192  137.4577  157.8786 C.3     1  UNL1        0.0275
     15 C         142.6699  136.0179  155.7212 C.3     1  UNL1        0.0053
     16 C         142.4491  136.0306  154.2376 C.3     1  UNL1        0.0322
     17 C         142.1726  134.7486  153.5095 C.3     1  UNL1        0.1422
     18 O         142.1170  133.4540  154.2650 O.3     1  UNL1       -0.3538
     19 C         142.3379  133.4413  155.7485 C.3     1  UNL1        0.1422
     20 C         142.6143  134.7232  156.4767 C.3     1  UNL1        0.0322
     21 C         138.8256  137.9940  164.9708 C.3     1  UNL1        0.1157
     22 N         139.5037  138.6828  163.8237 N.am    1  UNL1       -0.2660
     23 C         140.9794  138.5145  163.6142 C.2     1  UNL1        0.2494
     24 O         141.7771  137.6573  164.5517 O.2     1  UNL1       -0.2699
     25 C         138.7060  139.5400  162.8862 C.3     1  UNL1        0.1793
     26 C         138.2958  140.9225  163.2993 C.2     1  UNL1        0.2427
     27 O         137.0043  141.5015  162.8026 O.2     1  UNL1       -0.2732
     28 N         139.1772  141.7259  164.2090 N.am    1  UNL1       -0.3046
     29 H         140.0249  141.3459  164.5350 H       1  UNL1        0.1494
     30 C         138.7671  143.1083  164.6221 C.3     1  UNL1        0.0717
     31 C         139.0680  144.3950  165.3321 C.3     1  UNL1        0.0213
     32 C         137.7559  144.2162  164.6276 C.3     1  UNL1        0.0213
@<TRIPOS>BOND
     1    21    22    1
     2    22    25    1
     3    25    26    1
     4    26    27    2
     5    26    28   am
     6    28    30    1
     7    30    31    1
     8    31    32    1
     9    22    23   am
    10    23    24    2
    11    23     1    1
    12     1     2   ar
    13     2     3   ar
    14     3     4   ar
    15     4     5   ar
    16     5     6   ar
    17     5     7   ar
    18     7     8   ar
    19     8     9   ar
    20     9    10    1
    21     8    11    1
    22    11    12    1
    23    12    13    1
    24    13    15    1
    25    15    16    1
    26    16    17    1
    27    17    18    1
    28    18    19    1
    29    19    20    1
    30    13    14    1
    31    32    30    1
    32     6     1   ar
    33    14     7    1
    34     9     4   ar
    35    20    15    1
    36    28    29    1
@<TRIPOS>MOLECULE
*****
 32 36 0 0 0
SMALL
GASTEIGER

@<TRIPOS>ATOM
      1 C         140.9800  140.9579  160.4505 C.ar    1  UNL1        0.0537
      2 C         139.9393  141.8438  159.8325 C.ar    1  UNL1        0.0060
      3 C         139.1345  142.7700  160.6952 C.ar    1  UNL1        0.0173
      4 C         139.3704  142.8103  162.1760 C.ar    1  UNL1        0.0594
      5 C         140.4111  141.9244  162.7940 C.ar    1  UNL1        0.0130
      6 C         141.2159  140.9982  161.9313 C.ar    1  UNL1        0.0057
      7 C         140.4203  142.1813  164.2718 C.ar    1  UNL1       -0.0091
      8 C         139.3852  143.2260  164.5671 C.ar    1  UNL1        0.0331
      9 N         138.7363  143.6148  163.2719 N.ar    1  UNL1       -0.3289
     10 C         137.6450  144.6298  163.1022 C.3     1  UNL1        0.1301
     11 C         139.1673  143.6884  165.9774 C.3     1  UNL1        0.0435
     12 C         139.9845  143.1060  167.0924 C.3     1  UNL1        0.0066
     13 C         141.0195  142.0612  166.7971 C.3     1  UNL1        0.0049
     14 C         141.2374  141.5989  165.3867 C.3     1  UNL1        0.0275
     15 C         141.8367  141.4789  167.9120 C.3     1  UNL1        0.0053
     16 C         142.7595  142.3574  168.7035 C.3     1  UNL1        0.0322
     17 C         143.5767  141.7750  169.8184 C.3     1  UNL1        0.1422
     18 O         143.4711  140.3142  170.1418 O.3     1  UNL1       -0.3538
     19 C         142.5483  139.4356  169.3502 C.3     1  UNL1        0.1422
     20 C         141.7311  140.0179  168.2353 C.3     1  UNL1        0.0322
     21 C         143.8023  139.6158  158.0042 C.3     1  UNL1        0.1157
     22 N         142.9974  140.5420  158.8670 N.am    1  UNL1       -0.2660
     23 C         141.7850  140.0317  159.5877 C.2     1  UNL1        0.2494
     24 O         141.3774  138.5951  159.4458 O.2     1  UNL1       -0.2699
     25 C         143.4050  141.9786  159.0090 C.3     1  UNL1        0.1793
     26 C         143.6086  142.5692  160.3727 C.2     1  UNL1        0.2427
     27 O         144.5378  141.9063  161.3460 O.2     1  UNL1       -0.2732
     28 N         142.8831  143.8226  160.7632 N.am    1  UNL1       -0.3046
     29 H         142.2733  144.2577  160.1244 H       1  UNL1        0.1494
     30 C         143.0867  144.4132  162.1269 C.3     1  UNL1        0.0717
     31 C         142.5200  144.9633  163.4021 C.3     1  UNL1        0.0213
     32 C         144.0061  144.8860  163.2137 C.3     1  UNL1        0.0213
@<TRIPOS>BOND
     1    21    22    1
     2    22    25    1
     3    25    26    1
     4    26    27    2
     5    26    28   am
     6    28    30    1
     7    30    31    1
     8    31    32    1
     9    22    23   am
    10    23    24    2
    11    23     1    1
    12     1     2   ar
    13     2     3   ar
    14     3     4   ar
    15     4     5   ar
    16     5     6   ar
    17     5     7   ar
    18     7     8   ar
    19     8     9   ar
    20     9    10    1
    21     8    11    1
    22    11    12    1
    23    12    13    1
    24    13    15    1
    25    15    16    1
    26    16    17    1
    27    17    18    1
    28    18    19    1
    29    19    20    1
    30    13    14    1
    31    32    30    1
    32     6     1   ar
    33    14     7    1
    34     9     4   ar
    35    20    15    1
    36    28    29    1
