@<TRIPOS>MOLECULE
*****
 31 33 0 0 0
SMALL
GASTEIGER

@<TRIPOS>ATOM
      1 S         140.8168  138.6187  163.6881 S.O2    1  UNL1        0.0768
      2 O         141.3957  137.2969  164.0973 O.2     1  UNL1       -0.1498
      3 O         140.2378  139.9406  163.2789 O.2     1  UNL1       -0.1498
      4 O         142.1268  140.4362  165.6833 O.2     1  UNL1       -0.2509
      5 C         140.8787  139.6912  166.0537 C.2     1  UNL1        0.3232
      6 N         140.2856  139.8549  167.4217 N.am    1  UNL1       -0.2663
      7 N         140.2237  138.7825  165.0561 N.am    1  UNL1       -0.1690
      8 H         139.4664  139.3660  167.6648 H       1  UNL1        0.1565
      9 H         139.4045  138.2935  165.2992 H       1  UNL1        0.1781
     10 C         140.9406  140.7637  168.4193 C.ar    1  UNL1        0.0630
     11 C         140.3633  142.1215  168.6893 C.ar    1  UNL1        0.0270
     12 C         141.0183  143.0301  169.6869 C.ar    1  UNL1        0.0590
     13 CL        140.4410  144.3881  169.9568 Cl      1  UNL1       -0.0822
     14 C         142.2507  142.5809  170.4145 C.ar    1  UNL1        0.0123
     15 C         142.8280  141.2231  170.1446 C.ar    1  UNL1        0.0135
     16 C         142.1730  140.3145  169.1470 C.ar    1  UNL1        0.0712
     17 CL        142.7503  138.9565  168.8770 Cl      1  UNL1       -0.0810
     18 C         141.4099  138.4550  162.3201 C.ar    1  UNL1        0.1255
     19 C         140.5567  138.6594  161.1034 C.ar    1  UNL1        0.0233
     20 C         141.1499  138.4956  159.7354 C.ar    1  UNL1        0.0383
     21 C         142.5961  138.1275  159.5841 C.ar    1  UNL1        0.1387
     22 C         143.4492  137.9232  160.8009 C.ar    1  UNL1        0.0383
     23 C         142.8561  138.0869  162.1688 C.ar    1  UNL1        0.0233
     24 O         143.1892  137.9638  158.2162 O.3     1  UNL1       -0.4740
     25 C         142.5209  137.0739  157.2105 C.3     1  UNL1        0.2226
     26 C         143.3385  136.1142  156.3977 C.3     1  UNL1        0.1200
     27 N         142.9474  134.6678  156.3280 N.3     1  UNL1       -0.2696
     28 C         143.5153  133.5595  157.1642 C.3     1  UNL1        0.0722
     29 C         142.8386  132.2824  156.7629 C.3     1  UNL1        0.0188
     30 C         141.8524  132.6014  155.6786 C.3     1  UNL1        0.0188
     31 C         141.9196  134.0756  155.4099 C.3     1  UNL1        0.0722
@<TRIPOS>BOND
     1     4     5    2
     2     5     6   am
     3     6    10    1
     4    10    11   ar
     5    11    12   ar
     6    12    13    1
     7    12    14   ar
     8    14    15   ar
     9    15    16   ar
    10    16    17    1
    11     5     7   am
    12     7     1    1
    13     1     2    2
    14     1     3    2
    15     1    18    1
    16    18    19   ar
    17    19    20   ar
    18    20    21   ar
    19    21    24    1
    20    24    25    1
    21    25    26    1
    22    26    27    1
    23    27    28    1
    24    28    29    1
    25    29    30    1
    26    30    31    1
    27    21    22   ar
    28    22    23   ar
    29    16    10   ar
    30    23    18   ar
    31    31    27    1
    32     6     8    1
    33     7     9    1
@<TRIPOS>MOLECULE
*****
 31 33 0 0 0
SMALL
GASTEIGER

@<TRIPOS>ATOM
      1 S         143.5237  138.8523  163.7172 S.O2    1  UNL1        0.0768
      2 O         144.8285  139.5921  163.7028 O.2     1  UNL1       -0.1498
      3 O         142.2189  138.1125  163.7315 O.2     1  UNL1       -0.1498
      4 O         141.7019  140.5979  165.3401 O.2     1  UNL1       -0.2509
      5 C         142.6602  139.6705  166.0269 C.2     1  UNL1        0.3232
      6 N         142.7076  139.6160  167.5251 N.am    1  UNL1       -0.2663
      7 N         143.5711  138.7977  165.2154 N.am    1  UNL1       -0.1690
      8 H         143.3366  139.0073  167.9759 H       1  UNL1        0.1565
      9 H         144.2001  138.1890  165.6661 H       1  UNL1        0.1781
     10 C         141.7967  140.4888  168.3367 C.ar    1  UNL1        0.0630
     11 C         140.4914  139.9476  168.8399 C.ar    1  UNL1        0.0270
     12 C         139.5806  140.8204  169.6514 C.ar    1  UNL1        0.0590
     13 CL        138.2753  140.2793  170.1547 Cl      1  UNL1       -0.0822
     14 C         139.9751  142.2344  169.9596 C.ar    1  UNL1        0.0123
     15 C         141.2803  142.7756  169.4563 C.ar    1  UNL1        0.0135
     16 C         142.1912  141.9028  168.6448 C.ar    1  UNL1        0.0712
     17 CL        143.4965  142.4440  168.1415 Cl      1  UNL1       -0.0810
     18 C         143.4763  138.9068  162.2189 C.ar    1  UNL1        0.1255
     19 C         143.0370  137.7038  161.4381 C.ar    1  UNL1        0.0233
     20 C         142.9896  137.7584  159.9398 C.ar    1  UNL1        0.0383
     21 C         143.3815  139.0160  159.2224 C.ar    1  UNL1        0.1387
     22 C         143.8208  140.2191  160.0032 C.ar    1  UNL1        0.0383
     23 C         143.8682  140.1645  161.5014 C.ar    1  UNL1        0.0233
     24 O         143.3341  139.0706  157.7242 O.3     1  UNL1       -0.4740
     25 C         142.7250  137.9385  156.9513 C.3     1  UNL1        0.2226
     26 C         143.5969  137.0387  156.1265 C.3     1  UNL1        0.1200
     27 N         143.3156  135.5664  156.0714 N.3     1  UNL1       -0.2696
     28 C         143.3276  134.6222  157.2369 C.3     1  UNL1        0.0722
     29 C         142.9923  133.2519  156.7269 C.3     1  UNL1        0.0188
     30 C         142.7732  133.3493  155.2462 C.3     1  UNL1        0.0188
     31 C         142.9730  134.7796  154.8411 C.3     1  UNL1        0.0722
@<TRIPOS>BOND
     1     4     5    2
     2     5     6   am
     3     6    10    1
     4    10    11   ar
     5    11    12   ar
     6    12    13    1
     7    12    14   ar
     8    14    15   ar
     9    15    16   ar
    10    16    17    1
    11     5     7   am
    12     7     1    1
    13     1     2    2
    14     1     3    2
    15     1    18    1
    16    18    19   ar
    17    19    20   ar
    18    20    21   ar
    19    21    24    1
    20    24    25    1
    21    25    26    1
    22    26    27    1
    23    27    28    1
    24    28    29    1
    25    29    30    1
    26    30    31    1
    27    21    22   ar
    28    22    23   ar
    29    16    10   ar
    30    23    18   ar
    31    31    27    1
    32     6     8    1
    33     7     9    1
@<TRIPOS>MOLECULE
*****
 31 33 0 0 0
SMALL
GASTEIGER

@<TRIPOS>ATOM
      1 S         138.9573  139.0919  163.8814 S.O2    1  UNL1        0.0768
      2 O         137.9146  140.1677  163.9546 O.2     1  UNL1       -0.1498
      3 O         139.9999  138.0161  163.8082 O.2     1  UNL1       -0.1498
      4 O         140.6864  141.0069  165.4120 O.2     1  UNL1       -0.2509
      5 C         139.8643  139.9886  166.1449 C.2     1  UNL1        0.3232
      6 N         139.9067  139.9278  167.6430 N.am    1  UNL1       -0.2663
      7 N         138.9997  139.0311  165.3795 N.am    1  UNL1       -0.1690
      8 H         139.3670  139.2594  168.1240 H       1  UNL1        0.1565
      9 H         138.4600  138.3627  165.8605 H       1  UNL1        0.1781
     10 C         140.7713  140.8853  168.4084 C.ar    1  UNL1        0.0630
     11 C         140.2056  142.1904  168.8846 C.ar    1  UNL1        0.0270
     12 C         141.0702  143.1478  169.6499 C.ar    1  UNL1        0.0590
     13 CL        140.5046  144.4530  170.1261 Cl      1  UNL1       -0.0822
     14 C         142.5004  142.8002  169.9390 C.ar    1  UNL1        0.0123
     15 C         143.0661  141.4951  169.4628 C.ar    1  UNL1        0.0135
     16 C         142.2015  140.5377  168.6975 C.ar    1  UNL1        0.0712
     17 CL        142.7671  139.2325  168.2213 Cl      1  UNL1       -0.0810
     18 C         138.9149  139.1527  162.3833 C.ar    1  UNL1        0.1255
     19 C         139.9755  138.4665  161.5745 C.ar    1  UNL1        0.0233
     20 C         139.9331  138.5274  160.0763 C.ar    1  UNL1        0.0383
     21 C         138.8300  139.2744  159.3869 C.ar    1  UNL1        0.1387
     22 C         137.7694  139.9605  160.1957 C.ar    1  UNL1        0.0383
     23 C         137.8118  139.8997  161.6939 C.ar    1  UNL1        0.0233
     24 O         138.7876  139.3352  157.8888 O.3     1  UNL1       -0.4740
     25 C         139.9279  138.7866  157.0833 C.3     1  UNL1        0.2226
     26 C         139.8333  137.4129  156.4882 C.3     1  UNL1        0.1200
     27 N         141.0744  136.5940  156.2907 N.3     1  UNL1       -0.2696
     28 C         141.2232  135.4299  155.3564 C.3     1  UNL1        0.0722
     29 C         142.6254  134.9118  155.4811 C.3     1  UNL1        0.0188
     30 C         143.3431  135.7557  156.4924 C.3     1  UNL1        0.0188
     31 C         142.3845  136.7953  156.9928 C.3     1  UNL1        0.0722
@<TRIPOS>BOND
     1     4     5    2
     2     5     6   am
     3     6    10    1
     4    10    11   ar
     5    11    12   ar
     6    12    13    1
     7    12    14   ar
     8    14    15   ar
     9    15    16   ar
    10    16    17    1
    11     5     7   am
    12     7     1    1
    13     1     2    2
    14     1     3    2
    15     1    18    1
    16    18    19   ar
    17    19    20   ar
    18    20    21   ar
    19    21    24    1
    20    24    25    1
    21    25    26    1
    22    26    27    1
    23    27    28    1
    24    28    29    1
    25    29    30    1
    26    30    31    1
    27    21    22   ar
    28    22    23   ar
    29    16    10   ar
    30    23    18   ar
    31    31    27    1
    32     6     8    1
    33     7     9    1
@<TRIPOS>MOLECULE
*****
 31 33 0 0 0
SMALL
GASTEIGER

@<TRIPOS>ATOM
      1 S         143.0171  138.4800  164.0588 S.O2    1  UNL1        0.0768
      2 O         144.3796  139.1006  164.1495 O.2     1  UNL1       -0.1498
      3 O         141.6545  137.8595  163.9681 O.2     1  UNL1       -0.1498
      4 O         142.0283  140.8013  165.6819 O.2     1  UNL1       -0.2509
      5 C         142.4685  139.5410  166.3661 C.2     1  UNL1        0.3232
      6 N         142.4143  139.4414  167.8617 N.am    1  UNL1       -0.2663
      7 N         142.9629  138.3804  165.5545 N.am    1  UNL1       -0.1690
      8 H         142.7032  138.6143  168.3108 H       1  UNL1        0.1565
      9 H         143.2517  137.5533  166.0035 H       1  UNL1        0.1781
     10 C         141.9199  140.6020  168.6733 C.ar    1  UNL1        0.0630
     11 C         142.8990  141.5220  169.3403 C.ar    1  UNL1        0.0270
     12 C         142.4046  142.6826  170.1519 C.ar    1  UNL1        0.0590
     13 CL        143.3838  143.6026  170.8189 Cl      1  UNL1       -0.0822
     14 C         140.9311  142.9232  170.2964 C.ar    1  UNL1        0.0123
     15 C         139.9520  142.0032  169.6294 C.ar    1  UNL1        0.0135
     16 C         140.4464  140.8426  168.8179 C.ar    1  UNL1        0.0712
     17 CL        139.4673  139.9226  168.1508 Cl      1  UNL1       -0.0810
     18 C         143.0713  138.5797  162.5631 C.ar    1  UNL1        0.1255
     19 C         144.0942  139.4586  161.9066 C.ar    1  UNL1        0.0233
     20 C         144.1484  139.5582  160.4108 C.ar    1  UNL1        0.0383
     21 C         143.1796  138.7789  159.5717 C.ar    1  UNL1        0.1387
     22 C         142.1567  137.9000  160.2283 C.ar    1  UNL1        0.0383
     23 C         142.1025  137.8004  161.7239 C.ar    1  UNL1        0.0233
     24 O         143.2339  138.8786  158.0760 O.3     1  UNL1       -0.4740
     25 C         142.5396  137.8525  157.2303 C.3     1  UNL1        0.2226
     26 C         143.3439  136.8915  156.4059 C.3     1  UNL1        0.1200
     27 N         142.9399  135.4489  156.3287 N.3     1  UNL1       -0.2696
     28 C         141.8514  134.8831  155.4655 C.3     1  UNL1        0.0722
     29 C         141.7922  133.4035  155.7045 C.3     1  UNL1        0.0188
     30 C         142.8441  133.0548  156.7154 C.3     1  UNL1        0.0188
     31 C         143.5534  134.3190  157.1011 C.3     1  UNL1        0.0722
@<TRIPOS>BOND
     1     4     5    2
     2     5     6   am
     3     6    10    1
     4    10    11   ar
     5    11    12   ar
     6    12    13    1
     7    12    14   ar
     8    14    15   ar
     9    15    16   ar
    10    16    17    1
    11     5     7   am
    12     7     1    1
    13     1     2    2
    14     1     3    2
    15     1    18    1
    16    18    19   ar
    17    19    20   ar
    18    20    21   ar
    19    21    24    1
    20    24    25    1
    21    25    26    1
    22    26    27    1
    23    27    28    1
    24    28    29    1
    25    29    30    1
    26    30    31    1
    27    21    22   ar
    28    22    23   ar
    29    16    10   ar
    30    23    18   ar
    31    31    27    1
    32     6     8    1
    33     7     9    1
@<TRIPOS>MOLECULE
*****
 31 33 0 0 0
SMALL
GASTEIGER

@<TRIPOS>ATOM
      1 S         139.7243  141.2687  166.3040 S.O2    1  UNL1        0.0768
      2 O         140.1676  142.6310  166.7485 O.2     1  UNL1       -0.1498
      3 O         139.2810  139.9064  165.8595 O.2     1  UNL1       -0.1498
      4 O         140.8500  142.1409  163.6635 O.2     1  UNL1       -0.2509
      5 C         139.3914  142.3314  163.9567 C.2     1  UNL1        0.3232
      6 N         138.4955  142.9580  162.9296 N.am    1  UNL1       -0.2663
      7 N         138.8285  141.8953  165.2769 N.am    1  UNL1       -0.1690
      8 H         137.5382  143.0830  163.1220 H       1  UNL1        0.1565
      9 H         137.8711  142.0203  165.4694 H       1  UNL1        0.1781
     10 C         139.0584  143.3941  161.6093 C.ar    1  UNL1        0.0630
     11 C         138.9025  142.5184  160.4015 C.ar    1  UNL1        0.0270
     12 C         139.4654  142.9545  159.0813 C.ar    1  UNL1        0.0590
     13 CL        139.3096  142.0788  157.8734 Cl      1  UNL1       -0.0822
     14 C         140.1841  144.2663  158.9689 C.ar    1  UNL1        0.0123
     15 C         140.3399  145.1420  160.1767 C.ar    1  UNL1        0.0135
     16 C         139.7771  144.7059  161.4969 C.ar    1  UNL1        0.0712
     17 CL        139.9329  145.5816  162.7048 Cl      1  UNL1       -0.0810
     18 C         140.6201  140.6421  167.3310 C.ar    1  UNL1        0.1255
     19 C         140.1631  140.5276  168.7551 C.ar    1  UNL1        0.0233
     20 C         141.0590  139.9010  169.7822 C.ar    1  UNL1        0.0383
     21 C         142.4118  139.3889  169.3852 C.ar    1  UNL1        0.1387
     22 C         142.8688  139.5034  167.9611 C.ar    1  UNL1        0.0383
     23 C         141.9730  140.1300  166.9340 C.ar    1  UNL1        0.0233
     24 O         143.3076  138.7624  170.4122 O.3     1  UNL1       -0.4740
     25 C         143.2993  137.2752  170.6076 C.3     1  UNL1        0.2226
     26 C         144.5490  136.4804  170.3692 C.3     1  UNL1        0.1200
     27 N         145.3874  136.0350  171.5306 N.3     1  UNL1       -0.2696
     28 C         145.1079  134.8604  172.4206 C.3     1  UNL1        0.0722
     29 C         146.2003  134.7854  173.4459 C.3     1  UNL1        0.0188
     30 C         147.1549  135.9137  173.1894 C.3     1  UNL1        0.0188
     31 C         146.6525  136.6859  172.0057 C.3     1  UNL1        0.0722
@<TRIPOS>BOND
     1     4     5    2
     2     5     6   am
     3     6    10    1
     4    10    11   ar
     5    11    12   ar
     6    12    13    1
     7    12    14   ar
     8    14    15   ar
     9    15    16   ar
    10    16    17    1
    11     5     7   am
    12     7     1    1
    13     1     2    2
    14     1     3    2
    15     1    18    1
    16    18    19   ar
    17    19    20   ar
    18    20    21   ar
    19    21    24    1
    20    24    25    1
    21    25    26    1
    22    26    27    1
    23    27    28    1
    24    28    29    1
    25    29    30    1
    26    30    31    1
    27    21    22   ar
    28    22    23   ar
    29    16    10   ar
    30    23    18   ar
    31    31    27    1
    32     6     8    1
    33     7     9    1
@<TRIPOS>MOLECULE
*****
 31 33 0 0 0
SMALL
GASTEIGER

@<TRIPOS>ATOM
      1 S         141.6326  144.3504  162.5062 S.O2    1  UNL1        0.0768
      2 O         140.4996  145.3086  162.7248 O.2     1  UNL1       -0.1498
      3 O         142.7657  143.3921  162.2875 O.2     1  UNL1       -0.1498
      4 O         140.4314  143.8258  159.8076 O.2     1  UNL1       -0.2509
      5 C         141.4788  144.8875  159.9688 C.2     1  UNL1        0.3232
      6 N         141.9255  145.6868  158.7808 N.am    1  UNL1       -0.2663
      7 N         142.0794  145.1497  161.3181 N.am    1  UNL1       -0.1690
      8 H         142.6129  146.3836  158.8866 H       1  UNL1        0.1565
      9 H         142.7668  145.8465  161.4240 H       1  UNL1        0.1781
     10 C         141.3249  145.4245  157.4315 C.ar    1  UNL1        0.0630
     11 C         140.1729  146.2552  156.9491 C.ar    1  UNL1        0.0270
     12 C         139.5724  145.9930  155.5998 C.ar    1  UNL1        0.0590
     13 CL        138.4203  146.8237  155.1173 Cl      1  UNL1       -0.0822
     14 C         140.1238  144.9000  154.7330 C.ar    1  UNL1        0.0123
     15 C         141.2758  144.0693  155.2155 C.ar    1  UNL1        0.0135
     16 C         141.8763  144.3316  156.5647 C.ar    1  UNL1        0.0712
     17 CL        143.0284  143.5008  157.0473 Cl      1  UNL1       -0.0810
     18 C         141.1859  143.5510  163.6942 C.ar    1  UNL1        0.1255
     19 C         140.2271  144.1472  164.6817 C.ar    1  UNL1        0.0233
     20 C         139.7804  143.3478  165.8698 C.ar    1  UNL1        0.0383
     21 C         140.2924  141.9522  166.0702 C.ar    1  UNL1        0.1387
     22 C         141.2512  141.3560  165.0827 C.ar    1  UNL1        0.0383
     23 C         141.6979  142.1554  163.8947 C.ar    1  UNL1        0.0233
     24 O         139.8456  141.1529  167.2582 O.3     1  UNL1       -0.4740
     25 C         139.3707  139.7416  167.0770 C.3     1  UNL1        0.2226
     26 C         138.2113  139.4510  166.1708 C.3     1  UNL1        0.1200
     27 N         138.4545  139.0690  164.7408 N.3     1  UNL1       -0.2696
     28 C         139.0399  137.7738  164.2615 C.3     1  UNL1        0.0722
     29 C         139.1022  137.8195  162.7634 C.3     1  UNL1        0.0188
     30 C         138.5553  139.1429  162.3169 C.3     1  UNL1        0.0188
     31 C         138.1549  139.9151  163.5389 C.3     1  UNL1        0.0722
@<TRIPOS>BOND
     1     4     5    2
     2     5     6   am
     3     6    10    1
     4    10    11   ar
     5    11    12   ar
     6    12    13    1
     7    12    14   ar
     8    14    15   ar
     9    15    16   ar
    10    16    17    1
    11     5     7   am
    12     7     1    1
    13     1     2    2
    14     1     3    2
    15     1    18    1
    16    18    19   ar
    17    19    20   ar
    18    20    21   ar
    19    21    24    1
    20    24    25    1
    21    25    26    1
    22    26    27    1
    23    27    28    1
    24    28    29    1
    25    29    30    1
    26    30    31    1
    27    21    22   ar
    28    22    23   ar
    29    16    10   ar
    30    23    18   ar
    31    31    27    1
    32     6     8    1
    33     7     9    1
@<TRIPOS>MOLECULE
*****
 31 33 0 0 0
SMALL
GASTEIGER

@<TRIPOS>ATOM
      1 S         141.2364  144.9230  161.7368 S.O2    1  UNL1        0.0768
      2 O         140.2983  146.0557  162.0314 O.2     1  UNL1       -0.1498
      3 O         142.1745  143.7903  161.4421 O.2     1  UNL1       -0.1498
      4 O         139.4201  144.1469  159.4787 O.2     1  UNL1       -0.2509
      5 C         140.5629  145.0869  159.2329 C.2     1  UNL1        0.3232
      6 N         140.7975  145.6389  157.8580 N.am    1  UNL1       -0.2663
      7 N         141.4710  145.4750  160.3619 N.am    1  UNL1       -0.1690
      8 H         141.5475  146.2558  157.6967 H       1  UNL1        0.1565
      9 H         142.2211  146.0919  160.2006 H       1  UNL1        0.1781
     10 C         139.8893  145.2508  156.7290 C.ar    1  UNL1        0.0630
     11 C         139.8780  143.8372  156.2275 C.ar    1  UNL1        0.0270
     12 C         138.9698  143.4492  155.0985 C.ar    1  UNL1        0.0590
     13 CL        138.9584  142.0355  154.5970 Cl      1  UNL1       -0.0822
     14 C         138.0731  144.4749  154.4709 C.ar    1  UNL1        0.0123
     15 C         138.0845  145.8885  154.9723 C.ar    1  UNL1        0.0135
     16 C         138.9926  146.2765  156.1013 C.ar    1  UNL1        0.0712
     17 CL        139.0040  147.6902  156.6028 Cl      1  UNL1       -0.0810
     18 C         141.0018  144.3710  163.1116 C.ar    1  UNL1        0.1255
     19 C         142.0773  143.5806  163.7961 C.ar    1  UNL1        0.0233
     20 C         141.8426  143.0286  165.1710 C.ar    1  UNL1        0.0383
     21 C         140.5325  143.2671  165.8614 C.ar    1  UNL1        0.1387
     22 C         139.4570  144.0575  165.1769 C.ar    1  UNL1        0.0383
     23 C         139.6916  144.6095  163.8021 C.ar    1  UNL1        0.0233
     24 O         140.2978  142.7151  167.2362 O.3     1  UNL1       -0.4740
     25 C         141.3462  141.8666  167.8928 C.3     1  UNL1        0.2226
     26 C         141.1838  140.3761  167.9393 C.3     1  UNL1        0.1200
     27 N         140.0823  139.7171  167.1632 N.3     1  UNL1       -0.2696
     28 C         140.1746  139.2187  165.7514 C.3     1  UNL1        0.0722
     29 C         138.8445  138.6343  165.3782 C.3     1  UNL1        0.0188
     30 C         137.9301  138.7716  166.5593 C.3     1  UNL1        0.0188
     31 C         138.6951  139.4408  167.6624 C.3     1  UNL1        0.0722
@<TRIPOS>BOND
     1     4     5    2
     2     5     6   am
     3     6    10    1
     4    10    11   ar
     5    11    12   ar
     6    12    13    1
     7    12    14   ar
     8    14    15   ar
     9    15    16   ar
    10    16    17    1
    11     5     7   am
    12     7     1    1
    13     1     2    2
    14     1     3    2
    15     1    18    1
    16    18    19   ar
    17    19    20   ar
    18    20    21   ar
    19    21    24    1
    20    24    25    1
    21    25    26    1
    22    26    27    1
    23    27    28    1
    24    28    29    1
    25    29    30    1
    26    30    31    1
    27    21    22   ar
    28    22    23   ar
    29    16    10   ar
    30    23    18   ar
    31    31    27    1
    32     6     8    1
    33     7     9    1
@<TRIPOS>MOLECULE
*****
 31 33 0 0 0
SMALL
GASTEIGER

@<TRIPOS>ATOM
      1 S         138.9118  139.1548  164.2334 S.O2    1  UNL1        0.0768
      2 O         139.9663  138.0942  164.1189 O.2     1  UNL1       -0.1498
      3 O         137.8574  140.2154  164.3478 O.2     1  UNL1       -0.1498
      4 O         140.5967  141.1282  165.7389 O.2     1  UNL1       -0.2509
      5 C         139.8412  140.0665  166.4817 C.2     1  UNL1        0.3232
      6 N         139.9281  139.9914  167.9773 N.am    1  UNL1       -0.2663
      7 N         138.9987  139.0797  165.7289 N.am    1  UNL1       -0.1690
      8 H         139.4322  139.2946  168.4648 H       1  UNL1        0.1565
      9 H         138.5028  138.3829  166.2165 H       1  UNL1        0.1781
     10 C         140.7705  140.9782  168.7301 C.ar    1  UNL1        0.0630
     11 C         140.2055  142.3170  169.1020 C.ar    1  UNL1        0.0270
     12 C         141.0480  143.3037  169.8548 C.ar    1  UNL1        0.0590
     13 CL        140.4830  144.6426  170.2267 Cl      1  UNL1       -0.0822
     14 C         142.4554  142.9515  170.2357 C.ar    1  UNL1        0.0123
     15 C         143.0204  141.6127  169.8638 C.ar    1  UNL1        0.0135
     16 C         142.1780  140.6261  169.1110 C.ar    1  UNL1        0.0712
     17 CL        142.7429  139.2872  168.7391 Cl      1  UNL1       -0.0810
     18 C         138.8250  139.2298  162.7378 C.ar    1  UNL1        0.1255
     19 C         137.8959  140.2125  162.0888 C.ar    1  UNL1        0.0233
     20 C         137.8090  140.2875  160.5932 C.ar    1  UNL1        0.0383
     21 C         138.6513  139.3799  159.7466 C.ar    1  UNL1        0.1387
     22 C         139.5804  138.3972  160.3955 C.ar    1  UNL1        0.0383
     23 C         139.6672  138.3222  161.8911 C.ar    1  UNL1        0.0233
     24 O         138.5644  139.4549  158.2510 O.3     1  UNL1       -0.4740
     25 C         139.1134  140.6482  157.5268 C.3     1  UNL1        0.2226
     26 C         140.4098  141.2614  157.9666 C.3     1  UNL1        0.1200
     27 N         140.4330  142.2193  159.1207 N.3     1  UNL1       -0.2696
     28 C         141.1740  142.0278  160.4107 C.3     1  UNL1        0.0722
     29 C         140.9182  143.2271  161.2747 C.3     1  UNL1        0.0188
     30 C         140.0191  144.1597  160.5186 C.3     1  UNL1        0.0188
     31 C         139.7192  143.5369  159.1874 C.3     1  UNL1        0.0722
@<TRIPOS>BOND
     1     4     5    2
     2     5     6   am
     3     6    10    1
     4    10    11   ar
     5    11    12   ar
     6    12    13    1
     7    12    14   ar
     8    14    15   ar
     9    15    16   ar
    10    16    17    1
    11     5     7   am
    12     7     1    1
    13     1     2    2
    14     1     3    2
    15     1    18    1
    16    18    19   ar
    17    19    20   ar
    18    20    21   ar
    19    21    24    1
    20    24    25    1
    21    25    26    1
    22    26    27    1
    23    27    28    1
    24    28    29    1
    25    29    30    1
    26    30    31    1
    27    21    22   ar
    28    22    23   ar
    29    16    10   ar
    30    23    18   ar
    31    31    27    1
    32     6     8    1
    33     7     9    1
@<TRIPOS>MOLECULE
*****
 31 33 0 0 0
SMALL
GASTEIGER

@<TRIPOS>ATOM
      1 S         138.8152  139.1595  164.3201 S.O2    1  UNL1        0.0768
      2 O         137.8746  140.3231  164.4252 O.2     1  UNL1       -0.1498
      3 O         139.7559  137.9959  164.2150 O.2     1  UNL1       -0.1498
      4 O         140.5347  141.0972  165.8330 O.2     1  UNL1       -0.2509
      5 C         139.7505  140.0542  166.5728 C.2     1  UNL1        0.3232
      6 N         139.8260  139.9801  168.0691 N.am    1  UNL1       -0.2663
      7 N         138.8908  139.0854  165.8163 N.am    1  UNL1       -0.1690
      8 H         139.3113  139.2956  168.5546 H       1  UNL1        0.1565
      9 H         138.3761  138.4008  166.3019 H       1  UNL1        0.1781
     10 C         140.6857  140.9490  168.8256 C.ar    1  UNL1        0.0630
     11 C         140.1651  142.3174  169.1519 C.ar    1  UNL1        0.0270
     12 C         141.0249  143.2861  169.9083 C.ar    1  UNL1        0.0590
     13 CL        140.5043  144.6546  170.2347 Cl      1  UNL1       -0.0822
     14 C         142.4052  142.8866  170.3385 C.ar    1  UNL1        0.0123
     15 C         142.9258  141.5182  170.0122 C.ar    1  UNL1        0.0135
     16 C         142.0661  140.5494  169.2557 C.ar    1  UNL1        0.0712
     17 CL        142.5867  139.1810  168.9294 Cl      1  UNL1       -0.0810
     18 C         138.7397  139.2336  162.8239 C.ar    1  UNL1        0.1255
     19 C         139.3571  138.1524  161.9873 C.ar    1  UNL1        0.0233
     20 C         139.2815  138.2265  160.4909 C.ar    1  UNL1        0.0383
     21 C         138.5886  139.3818  159.8313 C.ar    1  UNL1        0.1387
     22 C         137.9713  140.4630  160.6679 C.ar    1  UNL1        0.0383
     23 C         138.0468  140.3889  162.1641 C.ar    1  UNL1        0.0233
     24 O         138.5131  139.4560  158.3351 O.3     1  UNL1       -0.4740
     25 C         139.2304  140.5500  157.6012 C.3     1  UNL1        0.2226
     26 C         140.6973  140.4238  157.3139 C.3     1  UNL1        0.1200
     27 N         141.6274  139.9104  158.3728 N.3     1  UNL1       -0.2696
     28 C         142.0521  140.6495  159.6071 C.3     1  UNL1        0.0722
     29 C         142.9834  139.7636  160.3804 C.3     1  UNL1        0.0188
     30 C         143.1343  138.4771  159.6241 C.3     1  UNL1        0.0188
     31 C         142.2963  138.5679  158.3833 C.3     1  UNL1        0.0722
@<TRIPOS>BOND
     1     4     5    2
     2     5     6   am
     3     6    10    1
     4    10    11   ar
     5    11    12   ar
     6    12    13    1
     7    12    14   ar
     8    14    15   ar
     9    15    16   ar
    10    16    17    1
    11     5     7   am
    12     7     1    1
    13     1     2    2
    14     1     3    2
    15     1    18    1
    16    18    19   ar
    17    19    20   ar
    18    20    21   ar
    19    21    24    1
    20    24    25    1
    21    25    26    1
    22    26    27    1
    23    27    28    1
    24    28    29    1
    25    29    30    1
    26    30    31    1
    27    21    22   ar
    28    22    23   ar
    29    16    10   ar
    30    23    18   ar
    31    31    27    1
    32     6     8    1
    33     7     9    1
