@<TRIPOS>MOLECULE
*****
 22 24 0 0 0
SMALL
GASTEIGER

@<TRIPOS>ATOM
      1 C         139.8807  140.1032  167.4111 C.ar    1  UNL1        0.0261
      2 C         139.0136  140.0000  168.6307 C.ar    1  UNL1        0.0077
      3 C         139.3986  140.7221  169.8878 C.ar    1  UNL1        0.0202
      4 C         140.6506  141.5473  169.9254 C.ar    1  UNL1        0.0893
      5 N         141.2815  142.3651  171.0132 N.ar    1  UNL1       -0.2245
      6 C         142.5385  142.9736  170.4659 C.ar    1  UNL1        0.1567
      7 N         143.4836  143.8670  171.2133 N.pl3   1  UNL1       -0.3375
      8 S         142.6844  142.5320  169.0398 S.2     1  UNL1       -0.0520
      9 C         141.5177  141.6505  168.7058 C.ar    1  UNL1        0.0502
     10 C         141.1327  140.9284  167.4486 C.ar    1  UNL1        0.0142
     11 H         143.3009  144.1015  172.1519 H       1  UNL1        0.1442
     12 H         144.2866  144.2188  170.7654 H       1  UNL1        0.1442
     13 S         139.4957  139.3811  166.1539 S.3     1  UNL1       -0.1088
     14 C         138.4132  139.9322  165.2740 C.3     1  UNL1        0.0884
     15 C         139.0792  143.7721  163.0242 C.ar    1  UNL1        0.0684
     16 C         137.7706  143.5246  163.7145 C.ar    1  UNL1        0.0100
     17 C         137.5486  142.2446  164.4644 C.ar    1  UNL1       -0.0027
     18 C         138.6352  141.2122  164.5240 C.ar    1  UNL1       -0.0110
     19 C         139.9437  141.4598  163.8337 C.ar    1  UNL1       -0.0027
     20 C         140.1657  142.7397  163.0838 C.ar    1  UNL1        0.0100
     21 N         139.5230  146.3321  161.5243 N.1     1  UNL1       -0.1908
     22 C         139.3011  145.0521  162.2742 C.1     1  UNL1        0.1004
@<TRIPOS>BOND
     1    21    22    3
     2    22    15    1
     3    15    16   ar
     4    16    17   ar
     5    17    18   ar
     6    18    14    1
     7    14    13    1
     8    13     1    1
     9     1     2   ar
    10     2     3   ar
    11     3     4   ar
    12     4     5   ar
    13     5     6   ar
    14     6     7    1
    15     6     8   ar
    16     8     9   ar
    17     9    10   ar
    18    18    19   ar
    19    19    20   ar
    20    20    15   ar
    21    10     1   ar
    22     9     4   ar
    23     7    11    1
    24     7    12    1
@<TRIPOS>MOLECULE
*****
 22 24 0 0 0
SMALL
GASTEIGER

@<TRIPOS>ATOM
      1 C         139.1554  139.9843  162.4947 C.ar    1  UNL1        0.0261
      2 C         137.7444  140.3919  162.7994 C.ar    1  UNL1        0.0077
      3 C         137.3843  141.8458  162.8791 C.ar    1  UNL1        0.0202
      4 C         138.4353  142.8922  162.6540 C.ar    1  UNL1        0.0893
      5 N         138.3786  144.3911  162.6684 N.ar    1  UNL1       -0.2245
      6 C         139.7546  144.9098  162.3725 C.ar    1  UNL1        0.1567
      7 N         140.1535  146.3534  162.2885 N.pl3   1  UNL1       -0.3375
      8 S         140.6616  143.7315  162.1752 S.2     1  UNL1       -0.0520
      9 C         139.8463  142.4846  162.3492 C.ar    1  UNL1        0.0502
     10 C         140.2063  141.0306  162.2696 C.ar    1  UNL1        0.0142
     11 H         139.4824  147.0588  162.4342 H       1  UNL1        0.1442
     12 H         141.0864  146.5954  162.0877 H       1  UNL1        0.1442
     13 S         139.5155  138.5303  162.4150 S.3     1  UNL1       -0.1088
     14 C         139.8801  137.7786  163.6607 C.3     1  UNL1        0.0884
     15 C         139.4047  139.7309  167.6872 C.ar    1  UNL1        0.0684
     16 C         138.2692  138.9516  167.0928 C.ar    1  UNL1        0.0100
     17 C         138.4276  138.3008  165.7506 C.ar    1  UNL1       -0.0027
     18 C         139.7216  138.4294  165.0029 C.ar    1  UNL1       -0.0110
     19 C         140.8571  139.2087  165.5973 C.ar    1  UNL1       -0.0027
     20 C         140.6986  139.8595  166.9394 C.ar    1  UNL1        0.0100
     21 N         139.0876  141.0324  170.3715 N.1     1  UNL1       -0.1908
     22 C         139.2462  140.3817  169.0293 C.1     1  UNL1        0.1004
@<TRIPOS>BOND
     1    21    22    3
     2    22    15    1
     3    15    16   ar
     4    16    17   ar
     5    17    18   ar
     6    18    14    1
     7    14    13    1
     8    13     1    1
     9     1     2   ar
    10     2     3   ar
    11     3     4   ar
    12     4     5   ar
    13     5     6   ar
    14     6     7    1
    15     6     8   ar
    16     8     9   ar
    17     9    10   ar
    18    18    19   ar
    19    19    20   ar
    20    20    15   ar
    21    10     1   ar
    22     9     4   ar
    23     7    11    1
    24     7    12    1
@<TRIPOS>MOLECULE
*****
 22 24 0 0 0
SMALL
GASTEIGER

@<TRIPOS>ATOM
      1 C         140.0157  140.1101  167.2870 C.ar    1  UNL1        0.0261
      2 C         141.3227  140.0121  166.5575 C.ar    1  UNL1        0.0077
      3 C         142.5234  140.7526  167.0673 C.ar    1  UNL1        0.0202
      4 C         142.4172  141.5911  168.3065 C.ar    1  UNL1        0.0893
      5 N         143.4222  142.4278  169.0414 N.ar    1  UNL1       -0.2245
      6 C         142.7362  143.0430  170.2250 C.ar    1  UNL1        0.1567
      7 N         143.3681  143.9546  171.2348 N.pl3   1  UNL1       -0.3375
      8 S         141.3074  142.5864  170.2216 S.2     1  UNL1       -0.0520
      9 C         141.1102  141.6891  169.0359 C.ar    1  UNL1        0.0502
     10 C         139.9095  140.9487  168.5262 C.ar    1  UNL1        0.0142
     11 H         144.3184  144.1981  171.1516 H       1  UNL1        0.1442
     12 H         142.8326  144.3095  171.9808 H       1  UNL1        0.1442
     13 S         138.8149  139.3697  166.7772 S.3     1  UNL1       -0.1088
     14 C         138.9670  138.3602  165.6783 C.3     1  UNL1        0.0884
     15 C         138.0719  139.5154  161.4222 C.ar    1  UNL1        0.0684
     16 C         138.6315  138.1579  161.7290 C.ar    1  UNL1        0.0100
     17 C         138.9299  137.7728  163.1477 C.ar    1  UNL1       -0.0027
     18 C         138.6687  138.7452  164.2595 C.ar    1  UNL1       -0.0110
     19 C         138.1091  140.1027  163.9527 C.ar    1  UNL1       -0.0027
     20 C         137.8107  140.4878  162.5340 C.ar    1  UNL1        0.0100
     21 N         137.4753  140.2855  158.5848 N.1     1  UNL1       -0.1908
     22 C         137.7736  139.9005  160.0034 C.1     1  UNL1        0.1004
@<TRIPOS>BOND
     1    21    22    3
     2    22    15    1
     3    15    16   ar
     4    16    17   ar
     5    17    18   ar
     6    18    14    1
     7    14    13    1
     8    13     1    1
     9     1     2   ar
    10     2     3   ar
    11     3     4   ar
    12     4     5   ar
    13     5     6   ar
    14     6     7    1
    15     6     8   ar
    16     8     9   ar
    17     9    10   ar
    18    18    19   ar
    19    19    20   ar
    20    20    15   ar
    21    10     1   ar
    22     9     4   ar
    23     7    11    1
    24     7    12    1
@<TRIPOS>MOLECULE
*****
 22 24 0 0 0
SMALL
GASTEIGER

@<TRIPOS>ATOM
      1 C         142.9607  140.8423  164.4028 C.ar    1  UNL1        0.0261
      2 C         144.0377  141.7307  164.9510 C.ar    1  UNL1        0.0077
      3 C         143.9394  143.2183  164.7855 C.ar    1  UNL1        0.0202
      4 C         142.7639  143.8174  164.0719 C.ar    1  UNL1        0.0893
      5 N         142.3973  145.2379  163.7586 N.ar    1  UNL1       -0.2245
      6 C         141.0936  145.2273  163.0168 C.ar    1  UNL1        0.1567
      7 N         140.3581  146.4321  162.5092 N.pl3   1  UNL1       -0.3375
      8 S         140.6545  143.8003  162.8716 S.2     1  UNL1       -0.0520
      9 C         141.6868  142.9290  163.5237 C.ar    1  UNL1        0.0502
     10 C         141.7852  141.4415  163.6892 C.ar    1  UNL1        0.0142
     11 H         140.7290  147.3325  162.6543 H       1  UNL1        0.1442
     12 H         139.5046  146.3225  162.0311 H       1  UNL1        0.1442
     13 S         143.0590  139.3547  164.5682 S.3     1  UNL1       -0.1088
     14 C         142.2097  138.6557  165.5881 C.3     1  UNL1        0.0884
     15 C         141.0968  140.7551  169.4095 C.ar    1  UNL1        0.0684
     16 C         140.1211  140.7019  168.2715 C.ar    1  UNL1        0.0100
     17 C         140.4921  140.0021  166.9976 C.ar    1  UNL1       -0.0027
     18 C         141.8387  139.3555  166.8619 C.ar    1  UNL1       -0.0110
     19 C         142.8144  139.4087  168.0000 C.ar    1  UNL1       -0.0027
     20 C         142.4434  140.1085  169.2738 C.ar    1  UNL1        0.0100
     21 N         140.3548  142.1547  171.9572 N.1     1  UNL1       -0.1908
     22 C         140.7258  141.4550  170.6834 C.1     1  UNL1        0.1004
@<TRIPOS>BOND
     1    21    22    3
     2    22    15    1
     3    15    16   ar
     4    16    17   ar
     5    17    18   ar
     6    18    14    1
     7    14    13    1
     8    13     1    1
     9     1     2   ar
    10     2     3   ar
    11     3     4   ar
    12     4     5   ar
    13     5     6   ar
    14     6     7    1
    15     6     8   ar
    16     8     9   ar
    17     9    10   ar
    18    18    19   ar
    19    19    20   ar
    20    20    15   ar
    21    10     1   ar
    22     9     4   ar
    23     7    11    1
    24     7    12    1
@<TRIPOS>MOLECULE
*****
 22 24 0 0 0
SMALL
GASTEIGER

@<TRIPOS>ATOM
      1 C         138.6663  140.3539  165.6340 C.ar    1  UNL1        0.0261
      2 C         139.8655  140.9758  166.2859 C.ar    1  UNL1        0.0077
      3 C         140.3793  142.2998  165.8032 C.ar    1  UNL1        0.0202
      4 C         139.6938  143.0018  164.6686 C.ar    1  UNL1        0.0893
      5 N         139.9702  144.3066  163.9821 N.ar    1  UNL1       -0.2245
      6 C         138.9418  144.4910  162.9059 C.ar    1  UNL1        0.1567
      7 N         138.8427  145.6608  161.9721 N.pl3   1  UNL1       -0.3375
      8 S         138.0298  143.3003  162.9273 S.2     1  UNL1       -0.0520
      9 C         138.4946  142.3799  164.0167 C.ar    1  UNL1        0.0502
     10 C         137.9808  141.0559  164.4994 C.ar    1  UNL1        0.0142
     11 H         139.4918  146.3982  162.0362 H       1  UNL1        0.1442
     12 H         138.1285  145.6912  161.2951 H       1  UNL1        0.1442
     13 S         138.1524  139.0298  166.1167 S.3     1  UNL1       -0.1088
     14 C         138.6790  137.7583  165.5201 C.3     1  UNL1        0.0884
     15 C         141.4015  137.9110  161.9403 C.ar    1  UNL1        0.0684
     16 C         141.9821  137.8535  163.3222 C.ar    1  UNL1        0.0100
     17 C         141.0746  137.8026  164.5155 C.ar    1  UNL1       -0.0027
     18 C         139.5866  137.8092  164.3268 C.ar    1  UNL1       -0.0110
     19 C         139.0060  137.8667  162.9449 C.ar    1  UNL1       -0.0027
     20 C         139.9134  137.9176  161.7517 C.ar    1  UNL1        0.0100
     21 N         143.2165  138.0129  159.5539 N.1     1  UNL1       -0.1908
     22 C         142.3090  137.9619  160.7471 C.1     1  UNL1        0.1004
@<TRIPOS>BOND
     1    21    22    3
     2    22    15    1
     3    15    16   ar
     4    16    17   ar
     5    17    18   ar
     6    18    14    1
     7    14    13    1
     8    13     1    1
     9     1     2   ar
    10     2     3   ar
    11     3     4   ar
    12     4     5   ar
    13     5     6   ar
    14     6     7    1
    15     6     8   ar
    16     8     9   ar
    17     9    10   ar
    18    18    19   ar
    19    19    20   ar
    20    20    15   ar
    21    10     1   ar
    22     9     4   ar
    23     7    11    1
    24     7    12    1
@<TRIPOS>MOLECULE
*****
 22 24 0 0 0
SMALL
GASTEIGER

@<TRIPOS>ATOM
      1 C         139.3544  140.5074  163.9276 C.ar    1  UNL1        0.0261
      2 C         137.8808  140.7016  163.7258 C.ar    1  UNL1        0.0077
      3 C         137.3580  142.0206  163.2393 C.ar    1  UNL1        0.0202
      4 C         138.3087  143.1454  162.9546 C.ar    1  UNL1        0.0893
      5 N         138.0882  144.5474  162.4687 N.ar    1  UNL1       -0.2245
      6 C         139.4255  145.2195  162.3703 C.ar    1  UNL1        0.1567
      7 N         139.6726  146.6305  161.9251 N.pl3   1  UNL1       -0.3375
      8 S         140.4725  144.2330  162.7954 S.2     1  UNL1       -0.0520
      9 C         139.7823  142.9512  163.1564 C.ar    1  UNL1        0.0502
     10 C         140.3051  141.6321  163.6430 C.ar    1  UNL1        0.0142
     11 H         138.9160  147.2040  161.6642 H       1  UNL1        0.1442
     12 H         140.5912  146.9831  161.8937 H       1  UNL1        0.1442
     13 S         139.8773  139.1883  164.4142 S.3     1  UNL1       -0.1088
     14 C         139.8612  138.8696  165.8798 C.3     1  UNL1        0.0884
     15 C         141.7403  141.7102  168.8209 C.ar    1  UNL1        0.0684
     16 C         142.5630  141.1283  167.7097 C.ar    1  UNL1        0.0100
     17 C         141.9367  140.1815  166.7294 C.ar    1  UNL1       -0.0027
     18 C         140.4877  139.8165  166.8602 C.ar    1  UNL1       -0.0110
     19 C         139.6650  140.3984  167.9713 C.ar    1  UNL1       -0.0027
     20 C         140.2913  141.3453  168.9517 C.ar    1  UNL1        0.0100
     21 N         142.9931  143.6040  170.7815 N.1     1  UNL1       -0.1908
     22 C         142.3668  142.6571  169.8012 C.1     1  UNL1        0.1004
@<TRIPOS>BOND
     1    21    22    3
     2    22    15    1
     3    15    16   ar
     4    16    17   ar
     5    17    18   ar
     6    18    14    1
     7    14    13    1
     8    13     1    1
     9     1     2   ar
    10     2     3   ar
    11     3     4   ar
    12     4     5   ar
    13     5     6   ar
    14     6     7    1
    15     6     8   ar
    16     8     9   ar
    17     9    10   ar
    18    18    19   ar
    19    19    20   ar
    20    20    15   ar
    21    10     1   ar
    22     9     4   ar
    23     7    11    1
    24     7    12    1
@<TRIPOS>MOLECULE
*****
 22 24 0 0 0
SMALL
GASTEIGER

@<TRIPOS>ATOM
      1 C         138.7565  139.2616  165.5986 C.ar    1  UNL1        0.0261
      2 C         139.0641  137.8550  165.1780 C.ar    1  UNL1        0.0077
      3 C         138.9407  137.4593  163.7364 C.ar    1  UNL1        0.0202
      4 C         138.5097  138.4702  162.7154 C.ar    1  UNL1        0.0893
      5 N         138.3003  138.3732  161.2332 N.ar    1  UNL1       -0.2245
      6 C         137.8633  139.7199  160.7378 C.ar    1  UNL1        0.1567
      7 N         137.5431  140.0751  159.3160 N.pl3   1  UNL1       -0.3375
      8 S         137.8026  140.6491  161.9138 S.2     1  UNL1       -0.0520
      9 C         138.2021  139.8767  163.1360 C.ar    1  UNL1        0.0502
     10 C         138.3255  140.2724  164.5776 C.ar    1  UNL1        0.0142
     11 H         137.6129  139.3921  158.6104 H       1  UNL1        0.1442
     12 H         137.2632  140.9911  159.0886 H       1  UNL1        0.1442
     13 S         138.8800  139.6573  167.0402 S.3     1  UNL1       -0.1088
     14 C         140.2341  139.8998  167.6381 C.3     1  UNL1        0.0884
     15 C         143.7101  140.9555  164.9824 C.ar    1  UNL1        0.0684
     16 C         143.5247  139.5419  165.4487 C.ar    1  UNL1        0.0100
     17 C         142.3661  139.1900  166.3339 C.ar    1  UNL1       -0.0027
     18 C         141.3928  140.2516  166.7528 C.ar    1  UNL1       -0.0110
     19 C         141.5781  141.6652  166.2865 C.ar    1  UNL1       -0.0027
     20 C         142.7368  142.0171  165.4012 C.ar    1  UNL1        0.0100
     21 N         146.0274  141.6592  163.2118 N.1     1  UNL1       -0.1908
     22 C         144.8688  141.3073  164.0971 C.1     1  UNL1        0.1004
@<TRIPOS>BOND
     1    21    22    3
     2    22    15    1
     3    15    16   ar
     4    16    17   ar
     5    17    18   ar
     6    18    14    1
     7    14    13    1
     8    13     1    1
     9     1     2   ar
    10     2     3   ar
    11     3     4   ar
    12     4     5   ar
    13     5     6   ar
    14     6     7    1
    15     6     8   ar
    16     8     9   ar
    17     9    10   ar
    18    18    19   ar
    19    19    20   ar
    20    20    15   ar
    21    10     1   ar
    22     9     4   ar
    23     7    11    1
    24     7    12    1
@<TRIPOS>MOLECULE
*****
 22 24 0 0 0
SMALL
GASTEIGER

@<TRIPOS>ATOM
      1 C         138.9420  141.8682  164.1716 C.ar    1  UNL1        0.0261
      2 C         138.4301  143.1487  164.7617 C.ar    1  UNL1        0.0077
      3 C         139.2649  144.3930  164.6920 C.ar    1  UNL1        0.0202
      4 C         140.6115  144.3567  164.0322 C.ar    1  UNL1        0.0893
      5 N         141.6511  145.4159  163.8140 N.ar    1  UNL1       -0.2245
      6 C         142.8055  144.7898  163.0890 C.ar    1  UNL1        0.1567
      7 N         144.0650  145.4873  162.6678 N.pl3   1  UNL1       -0.3375
      8 S         142.4793  143.3439  162.8592 S.2     1  UNL1       -0.0520
      9 C         141.1234  143.0762  163.4421 C.ar    1  UNL1        0.0502
     10 C         140.2886  141.8319  163.5118 C.ar    1  UNL1        0.0142
     11 H         144.1873  146.4441  162.8650 H       1  UNL1        0.1442
     12 H         144.7692  144.9883  162.1942 H       1  UNL1        0.1442
     13 S         138.1072  140.6238  164.2413 S.3     1  UNL1       -0.1088
     14 C         138.6610  139.3839  164.8783 C.3     1  UNL1        0.0884
     15 C         141.5096  139.7158  168.3461 C.ar    1  UNL1        0.0684
     16 C         142.0223  139.3388  166.9878 C.ar    1  UNL1        0.0100
     17 C         141.0728  139.2282  165.8318 C.ar    1  UNL1       -0.0027
     18 C         139.6106  139.4945  166.0342 C.ar    1  UNL1       -0.0110
     19 C         139.0979  139.8715  167.3926 C.ar    1  UNL1       -0.0027
     20 C         140.0474  139.9822  168.5485 C.ar    1  UNL1        0.0100
     21 N         143.4087  139.9371  170.6579 N.1     1  UNL1       -0.1908
     22 C         142.4591  139.8265  169.5020 C.1     1  UNL1        0.1004
@<TRIPOS>BOND
     1    21    22    3
     2    22    15    1
     3    15    16   ar
     4    16    17   ar
     5    17    18   ar
     6    18    14    1
     7    14    13    1
     8    13     1    1
     9     1     2   ar
    10     2     3   ar
    11     3     4   ar
    12     4     5   ar
    13     5     6   ar
    14     6     7    1
    15     6     8   ar
    16     8     9   ar
    17     9    10   ar
    18    18    19   ar
    19    19    20   ar
    20    20    15   ar
    21    10     1   ar
    22     9     4   ar
    23     7    11    1
    24     7    12    1
@<TRIPOS>MOLECULE
*****
 22 24 0 0 0
SMALL
GASTEIGER

@<TRIPOS>ATOM
      1 C         140.1235  140.6084  166.8077 C.ar    1  UNL1        0.0261
      2 C         139.0565  139.6769  166.3140 C.ar    1  UNL1        0.0077
      3 C         138.0989  140.1292  165.2518 C.ar    1  UNL1        0.0202
      4 C         138.2082  141.5130  164.6833 C.ar    1  UNL1        0.0893
      5 N         137.4126  142.2333  163.6353 N.ar    1  UNL1       -0.2245
      6 C         137.9879  143.6099  163.4813 C.ar    1  UNL1        0.1567
      7 N         137.4981  144.6700  162.5397 N.pl3   1  UNL1       -0.3375
      8 S         139.1391  143.7405  164.4341 S.2     1  UNL1       -0.0520
      9 C         139.2752  142.4445  165.1770 C.ar    1  UNL1        0.0502
     10 C         140.2329  141.9922  166.2392 C.ar    1  UNL1        0.0142
     11 H         136.7309  144.4884  161.9501 H       1  UNL1        0.1442
     12 H         137.9439  145.5474  162.5114 H       1  UNL1        0.1442
     13 S         141.0813  140.1562  167.8699 S.3     1  UNL1       -0.1088
     14 C         142.4074  139.5710  167.4842 C.3     1  UNL1        0.0884
     15 C         143.5043  139.1528  163.1401 C.ar    1  UNL1        0.0684
     16 C         142.6467  138.1143  163.8004 C.ar    1  UNL1        0.0100
     17 C         142.2811  138.2537  165.2484 C.ar    1  UNL1       -0.0027
     18 C         142.7730  139.4316  166.0361 C.ar    1  UNL1       -0.0110
     19 C         143.6306  140.4701  165.3758 C.ar    1  UNL1       -0.0027
     20 C         143.9963  140.3307  163.9277 C.ar    1  UNL1        0.0100
     21 N         144.2356  138.8739  160.2439 N.1     1  UNL1       -0.1908
     22 C         143.8699  139.0133  161.6919 C.1     1  UNL1        0.1004
@<TRIPOS>BOND
     1    21    22    3
     2    22    15    1
     3    15    16   ar
     4    16    17   ar
     5    17    18   ar
     6    18    14    1
     7    14    13    1
     8    13     1    1
     9     1     2   ar
    10     2     3   ar
    11     3     4   ar
    12     4     5   ar
    13     5     6   ar
    14     6     7    1
    15     6     8   ar
    16     8     9   ar
    17     9    10   ar
    18    18    19   ar
    19    19    20   ar
    20    20    15   ar
    21    10     1   ar
    22     9     4   ar
    23     7    11    1
    24     7    12    1
