@<TRIPOS>MOLECULE
*****
 35 38 0 0 0
SMALL
GASTEIGER

@<TRIPOS>ATOM
      1 C         140.3787  141.9100  163.2162 C.3     1  UNL1        0.0308
      2 C         139.8518  140.8591  164.1478 C.ar    1  UNL1       -0.0230
      3 C         139.2256  139.6130  163.5955 C.ar    1  UNL1        0.0348
      4 C         138.6986  138.5621  164.5271 C.ar    1  UNL1        0.0025
      5 C         138.7978  138.7573  166.0110 C.ar    1  UNL1       -0.0031
      6 C         139.4241  140.0034  166.5634 C.ar    1  UNL1       -0.0103
      7 C         139.9510  141.0543  165.6318 C.ar    1  UNL1       -0.0273
      8 C         140.5772  142.3004  166.1841 C.3     1  UNL1        0.0431
      9 C         140.6764  142.4956  167.6680 C.3     1  UNL1        0.0772
     10 N         140.1495  141.4447  168.5996 N.3     1  UNL1       -0.2657
     11 C         139.5233  140.1986  168.0473 C.3     1  UNL1        0.0989
     12 C         139.1263  139.4177  162.1115 C.ar    1  UNL1        0.2033
     13 N         137.9351  139.7379  161.2580 N.ar    1  UNL1       -0.0556
     14 O         138.2734  139.3861  159.8395 O.2     1  UNL1       -0.3324
     15 C         139.6736  138.8485  159.8166 C.ar    1  UNL1        0.2600
     16 N         140.2007  138.8681  161.2208 N.ar    1  UNL1       -0.1870
     17 C         140.4162  138.3746  158.6026 C.ar    1  UNL1        0.0569
     18 C         141.9043  138.1936  158.6568 C.ar    1  UNL1        0.0079
     19 C         142.6470  137.7197  157.4429 C.ar    1  UNL1        0.0377
     20 C         141.9016  137.4267  156.1746 C.ar    1  UNL1        0.1479
     21 C         140.4135  137.6076  156.1203 C.ar    1  UNL1        0.1024
     22 C         139.6709  138.0816  157.3343 C.ar    1  UNL1        0.0181
     23 C         139.6681  137.3147  154.8520 C.1     1  UNL1        0.1035
     24 N         138.9228  137.0217  153.5837 N.1     1  UNL1       -0.1907
     25 O         142.6443  136.9527  154.9606 O.3     1  UNL1       -0.4785
     26 C         142.8566  135.4848  154.7369 C.3     1  UNL1        0.1662
     27 C         143.7547  134.7086  155.6539 C.3     1  UNL1        0.0472
     28 C         142.1709  134.7931  153.5961 C.3     1  UNL1        0.0472
     29 C         140.2487  141.6400  170.0836 C.3     1  UNL1        0.1169
     30 C         140.6219  140.4877  170.9683 C.3     1  UNL1        0.1555
     31 O         139.5959  139.4532  171.3253 O.3     1  UNL1       -0.3805
     32 H         138.9038  139.8589  171.8705 H       1  UNL1        0.2105
     33 C         139.9748  142.9876  170.6827 C.3     1  UNL1        0.1555
     34 O         138.6996  143.2289  171.4345 O.3     1  UNL1       -0.3805
     35 H         137.9479  143.1667  170.8246 H       1  UNL1        0.2105
@<TRIPOS>BOND
     1     1     2    1
     2     2     3   ar
     3     3    12    1
     4    12    13   ar
     5    13    14   ar
     6    14    15   ar
     7    15    17    1
     8    17    18   ar
     9    18    19   ar
    10    19    20   ar
    11    20    25    1
    12    25    26    1
    13    26    27    1
    14    26    28    1
    15    20    21   ar
    16    21    23    1
    17    23    24    3
    18    21    22   ar
    19    15    16   ar
    20     3     4   ar
    21     4     5   ar
    22     5     6   ar
    23     6     7   ar
    24     7     8    1
    25     8     9    1
    26     9    10    1
    27    10    29    1
    28    29    30    1
    29    30    31    1
    30    29    33    1
    31    33    34    1
    32    10    11    1
    33     7     2   ar
    34    16    12   ar
    35    11     6    1
    36    22    17   ar
    37    31    32    1
    38    34    35    1
@<TRIPOS>MOLECULE
*****
 35 38 0 0 0
SMALL
GASTEIGER

@<TRIPOS>ATOM
      1 C         140.1032  142.1050  162.8785 C.3     1  UNL1        0.0308
      2 C         139.7175  140.9832  163.7965 C.ar    1  UNL1       -0.0230
      3 C         139.2061  139.6922  163.2295 C.ar    1  UNL1        0.0348
      4 C         138.8204  138.5703  164.1475 C.ar    1  UNL1        0.0025
      5 C         138.9460  138.7396  165.6326 C.ar    1  UNL1       -0.0031
      6 C         139.4574  140.0307  166.1997 C.ar    1  UNL1       -0.0103
      7 C         139.8432  141.1525  165.2817 C.ar    1  UNL1       -0.0273
      8 C         140.3546  142.4436  165.8488 C.3     1  UNL1        0.0431
      9 C         140.4802  142.6128  167.3338 C.3     1  UNL1        0.0772
     10 N         140.0945  141.4910  168.2518 N.3     1  UNL1       -0.2657
     11 C         139.5831  140.1999  167.6848 C.3     1  UNL1        0.0989
     12 C         139.0804  139.5229  161.7443 C.ar    1  UNL1        0.2033
     13 N         137.8528  139.7958  160.9267 N.ar    1  UNL1       -0.0556
     14 O         138.1739  139.4926  159.4931 O.2     1  UNL1       -0.3324
     15 C         139.5999  139.0322  159.4249 C.ar    1  UNL1        0.2600
     16 N         140.1601  139.0509  160.8162 N.ar    1  UNL1       -0.1870
     17 C         140.3363  138.6247  158.1833 C.ar    1  UNL1        0.0569
     18 C         139.6962  137.6837  157.2062 C.ar    1  UNL1        0.0079
     19 C         140.4326  137.2761  155.9647 C.ar    1  UNL1        0.0377
     20 C         141.8093  137.8096  155.7002 C.ar    1  UNL1        0.1479
     21 C         142.4497  138.7506  156.6772 C.ar    1  UNL1        0.1024
     22 C         141.7131  139.1581  157.9188 C.ar    1  UNL1        0.0181
     23 C         143.8264  139.2841  156.4126 C.1     1  UNL1        0.1035
     24 N         145.2031  139.8175  156.1481 N.1     1  UNL1       -0.1907
     25 O         142.5458  137.4020  154.4586 O.3     1  UNL1       -0.4785
     26 C         142.2980  136.0547  153.8477 C.3     1  UNL1        0.1662
     27 C         142.8179  134.8190  154.5206 C.3     1  UNL1        0.0472
     28 C         141.5302  135.9430  152.5640 C.3     1  UNL1        0.0472
     29 C         140.2202  141.6603  169.7370 C.3     1  UNL1        0.1169
     30 C         140.0303  143.0131  170.3564 C.3     1  UNL1        0.1555
     31 O         139.0175  143.2035  171.4464 O.3     1  UNL1       -0.3805
     32 H         138.1270  143.0624  171.0886 H       1  UNL1        0.2105
     33 C         140.5358  140.4767  170.6027 C.3     1  UNL1        0.1555
     34 O         140.5952  140.6323  172.0934 O.3     1  UNL1       -0.3805
     35 H         141.3390  141.2086  172.3289 H       1  UNL1        0.2105
@<TRIPOS>BOND
     1     1     2    1
     2     2     3   ar
     3     3    12    1
     4    12    13   ar
     5    13    14   ar
     6    14    15   ar
     7    15    17    1
     8    17    18   ar
     9    18    19   ar
    10    19    20   ar
    11    20    25    1
    12    25    26    1
    13    26    27    1
    14    26    28    1
    15    20    21   ar
    16    21    23    1
    17    23    24    3
    18    21    22   ar
    19    15    16   ar
    20     3     4   ar
    21     4     5   ar
    22     5     6   ar
    23     6     7   ar
    24     7     8    1
    25     8     9    1
    26     9    10    1
    27    10    29    1
    28    29    30    1
    29    30    31    1
    30    29    33    1
    31    33    34    1
    32    10    11    1
    33     7     2   ar
    34    16    12   ar
    35    11     6    1
    36    22    17   ar
    37    31    32    1
    38    34    35    1
@<TRIPOS>MOLECULE
*****
 35 38 0 0 0
SMALL
GASTEIGER

@<TRIPOS>ATOM
      1 C         140.3854  139.9476  162.6221 C.3     1  UNL1        0.0308
      2 C         141.5383  139.6129  163.5214 C.ar    1  UNL1       -0.0230
      3 C         142.8345  139.1386  162.9342 C.ar    1  UNL1        0.0348
      4 C         143.9874  138.8039  163.8336 C.ar    1  UNL1        0.0025
      5 C         143.8441  138.9435  165.3201 C.ar    1  UNL1       -0.0031
      6 C         142.5479  139.4179  165.9074 C.ar    1  UNL1       -0.0103
      7 C         141.3950  139.7526  165.0081 C.ar    1  UNL1       -0.0273
      8 C         140.0988  140.2269  165.5953 C.3     1  UNL1        0.0431
      9 C         139.9555  140.3666  167.0818 C.3     1  UNL1        0.0772
     10 N         141.1084  140.0319  167.9812 N.3     1  UNL1       -0.2657
     11 C         142.4046  139.5575  167.3940 C.3     1  UNL1        0.0989
     12 C         142.9779  138.9989  161.4476 C.ar    1  UNL1        0.2033
     13 N         143.8870  139.8070  160.5698 N.ar    1  UNL1       -0.0556
     14 O         143.7083  139.3342  159.1574 O.2     1  UNL1       -0.3324
     15 C         142.6887  138.2340  159.1625 C.ar    1  UNL1        0.2600
     16 N         142.2373  138.0268  160.5778 N.ar    1  UNL1       -0.1870
     17 C         142.2054  137.4744  157.9628 C.ar    1  UNL1        0.0569
     18 C         143.0582  136.3949  157.3649 C.ar    1  UNL1        0.0079
     19 C         142.5749  135.6353  156.1652 C.ar    1  UNL1        0.0377
     20 C         141.2387  135.9551  155.5633 C.ar    1  UNL1        0.1479
     21 C         140.3857  137.0345  156.1612 C.ar    1  UNL1        0.1024
     22 C         140.8692  137.7941  157.3609 C.ar    1  UNL1        0.0181
     23 C         139.0495  137.3543  155.5593 C.1     1  UNL1        0.1035
     24 N         137.7133  137.6740  154.9575 N.1     1  UNL1       -0.1907
     25 O         140.7554  135.1954  154.3636 O.3     1  UNL1       -0.4785
     26 C         141.4577  135.3471  153.0469 C.3     1  UNL1        0.1662
     27 C         141.7726  134.1353  152.2209 C.3     1  UNL1        0.0472
     28 C         141.8451  136.7106  152.5562 C.3     1  UNL1        0.0472
     29 C         140.9650  140.1715  169.4678 C.3     1  UNL1        0.1169
     30 C         139.6362  140.5328  170.0625 C.3     1  UNL1        0.1555
     31 O         138.8609  139.5123  170.8419 O.3     1  UNL1       -0.3805
     32 H         138.5842  138.7952  170.2501 H       1  UNL1        0.2105
     33 C         142.1505  139.9498  170.3597 C.3     1  UNL1        0.1555
     34 O         142.2357  140.6520  171.6824 O.3     1  UNL1       -0.3805
     35 H         142.3188  141.6074  171.5365 H       1  UNL1        0.2105
@<TRIPOS>BOND
     1     1     2    1
     2     2     3   ar
     3     3    12    1
     4    12    13   ar
     5    13    14   ar
     6    14    15   ar
     7    15    17    1
     8    17    18   ar
     9    18    19   ar
    10    19    20   ar
    11    20    25    1
    12    25    26    1
    13    26    27    1
    14    26    28    1
    15    20    21   ar
    16    21    23    1
    17    23    24    3
    18    21    22   ar
    19    15    16   ar
    20     3     4   ar
    21     4     5   ar
    22     5     6   ar
    23     6     7   ar
    24     7     8    1
    25     8     9    1
    26     9    10    1
    27    10    29    1
    28    29    30    1
    29    30    31    1
    30    29    33    1
    31    33    34    1
    32    10    11    1
    33     7     2   ar
    34    16    12   ar
    35    11     6    1
    36    22    17   ar
    37    31    32    1
    38    34    35    1
@<TRIPOS>MOLECULE
*****
 35 38 0 0 0
SMALL
GASTEIGER

@<TRIPOS>ATOM
      1 C         142.0851  140.7671  162.7492 C.3     1  UNL1        0.0308
      2 C         142.8157  141.7148  163.6536 C.ar    1  UNL1       -0.0230
      3 C         143.6503  142.8158  163.0696 C.ar    1  UNL1        0.0348
      4 C         144.3809  143.7635  163.9741 C.ar    1  UNL1        0.0025
      5 C         144.2769  143.6102  165.4626 C.ar    1  UNL1       -0.0031
      6 C         143.4423  142.5091  166.0466 C.ar    1  UNL1       -0.0103
      7 C         142.7117  141.5614  165.1422 C.ar    1  UNL1       -0.0273
      8 C         141.8772  140.4603  165.7262 C.3     1  UNL1        0.0431
      9 C         141.7732  140.3070  167.2147 C.3     1  UNL1        0.0772
     10 N         142.5038  141.2547  168.1191 N.3     1  UNL1       -0.2657
     11 C         143.3384  142.3557  167.5351 C.3     1  UNL1        0.0989
     12 C         143.7543  142.9692  161.5810 C.ar    1  UNL1        0.2033
     13 N         142.7792  143.6912  160.6989 N.ar    1  UNL1       -0.0556
     14 O         143.2738  143.5958  159.2860 O.2     1  UNL1       -0.3324
     15 C         144.5546  142.8149  159.2950 C.ar    1  UNL1        0.2600
     16 N         144.8514  142.4277  160.7134 N.ar    1  UNL1       -0.1870
     17 C         145.3914  142.4800  158.0961 C.ar    1  UNL1        0.0569
     18 C         146.7850  143.0225  157.9788 C.ar    1  UNL1        0.0079
     19 C         147.6218  142.6877  156.7799 C.ar    1  UNL1        0.0377
     20 C         147.0652  141.8102  155.6981 C.ar    1  UNL1        0.1479
     21 C         145.6716  141.2676  155.8153 C.ar    1  UNL1        0.1024
     22 C         144.8348  141.6026  157.0143 C.ar    1  UNL1        0.0181
     23 C         145.1150  140.3902  154.7335 C.1     1  UNL1        0.1035
     24 N         144.5583  139.5127  153.6517 N.1     1  UNL1       -0.1907
     25 O         147.9020  141.4753  154.4992 O.3     1  UNL1       -0.4785
     26 C         148.5640  142.5707  153.7169 C.3     1  UNL1        0.1662
     27 C         150.0308  142.4941  153.4126 C.3     1  UNL1        0.0472
     28 C         147.7590  143.7427  153.2389 C.3     1  UNL1        0.0472
     29 C         142.3998  141.1013  169.6077 C.3     1  UNL1        0.1169
     30 C         142.5583  139.7481  170.2351 C.3     1  UNL1        0.1555
     31 O         143.6656  139.5013  171.2164 O.3     1  UNL1       -0.3805
     32 H         144.5206  139.5713  170.7635 H       1  UNL1        0.2105
     33 C         142.1374  142.3011  170.4688 C.3     1  UNL1        0.1555
     34 O         141.5419  142.1283  171.8346 O.3     1  UNL1       -0.3805
     35 H         140.6377  141.7868  171.7522 H       1  UNL1        0.2105
@<TRIPOS>BOND
     1     1     2    1
     2     2     3   ar
     3     3    12    1
     4    12    13   ar
     5    13    14   ar
     6    14    15   ar
     7    15    17    1
     8    17    18   ar
     9    18    19   ar
    10    19    20   ar
    11    20    25    1
    12    25    26    1
    13    26    27    1
    14    26    28    1
    15    20    21   ar
    16    21    23    1
    17    23    24    3
    18    21    22   ar
    19    15    16   ar
    20     3     4   ar
    21     4     5   ar
    22     5     6   ar
    23     6     7   ar
    24     7     8    1
    25     8     9    1
    26     9    10    1
    27    10    29    1
    28    29    30    1
    29    30    31    1
    30    29    33    1
    31    33    34    1
    32    10    11    1
    33     7     2   ar
    34    16    12   ar
    35    11     6    1
    36    22    17   ar
    37    31    32    1
    38    34    35    1
@<TRIPOS>MOLECULE
*****
 35 38 0 0 0
SMALL
GASTEIGER

@<TRIPOS>ATOM
      1 C         142.6847  143.7313  163.1575 C.3     1  UNL1        0.0308
      2 C         141.4818  143.6984  164.0530 C.ar    1  UNL1       -0.0230
      3 C         140.1810  144.2794  163.5834 C.ar    1  UNL1        0.0348
      4 C         138.9781  144.2465  164.4789 C.ar    1  UNL1        0.0025
      5 C         139.0759  143.6326  165.8440 C.ar    1  UNL1       -0.0031
      6 C         140.3767  143.0516  166.3137 C.ar    1  UNL1       -0.0103
      7 C         141.5796  143.0845  165.4182 C.ar    1  UNL1       -0.0273
      8 C         142.8803  142.5035  165.8878 C.3     1  UNL1        0.0431
      9 C         142.9781  141.8897  167.2529 C.3     1  UNL1        0.0772
     10 N         141.7752  141.8568  168.1484 N.3     1  UNL1       -0.2657
     11 C         140.4745  142.4377  167.6788 C.3     1  UNL1        0.0989
     12 C         140.0832  144.8933  162.2182 C.ar    1  UNL1        0.2033
     13 N         139.4312  146.2025  161.8850 N.ar    1  UNL1       -0.0556
     14 O         139.5652  146.4241  160.4075 O.2     1  UNL1       -0.3324
     15 C         140.3000  145.2520  159.8277 C.ar    1  UNL1        0.2600
     16 N         140.6201  144.3059  160.9468 N.ar    1  UNL1       -0.1870
     17 C         140.6527  145.0597  158.3825 C.ar    1  UNL1        0.0569
     18 C         141.3425  143.8035  157.9395 C.ar    1  UNL1        0.0079
     19 C         141.6952  143.6112  156.4944 C.ar    1  UNL1        0.0377
     20 C         141.3581  144.6751  155.4921 C.ar    1  UNL1        0.1479
     21 C         140.6683  145.9313  155.9350 C.ar    1  UNL1        0.1024
     22 C         140.3156  146.1235  157.3803 C.ar    1  UNL1        0.0181
     23 C         140.3312  146.9951  154.9327 C.1     1  UNL1        0.1035
     24 N         139.9941  148.0590  153.9305 N.1     1  UNL1       -0.1907
     25 O         141.7109  144.4828  154.0469 O.3     1  UNL1       -0.4785
     26 C         143.0186  144.9943  153.5196 C.3     1  UNL1        0.1662
     27 C         143.0402  146.1383  152.5496 C.3     1  UNL1        0.0472
     28 C         144.3047  144.3619  153.9622 C.3     1  UNL1        0.0472
     29 C         141.8731  141.2428  169.5136 C.3     1  UNL1        0.1169
     30 C         140.6266  140.9443  170.2927 C.3     1  UNL1        0.1555
     31 O         140.7156  140.6195  171.7545 O.3     1  UNL1       -0.3805
     32 H         141.1851  139.7787  171.8709 H       1  UNL1        0.2105
     33 C         143.2174  140.9275  170.0995 C.3     1  UNL1        0.1555
     34 O         143.3634  139.7998  171.0776 O.3     1  UNL1       -0.3805
     35 H         142.8779  140.0116  171.8902 H       1  UNL1        0.2105
@<TRIPOS>BOND
     1     1     2    1
     2     2     3   ar
     3     3    12    1
     4    12    13   ar
     5    13    14   ar
     6    14    15   ar
     7    15    17    1
     8    17    18   ar
     9    18    19   ar
    10    19    20   ar
    11    20    25    1
    12    25    26    1
    13    26    27    1
    14    26    28    1
    15    20    21   ar
    16    21    23    1
    17    23    24    3
    18    21    22   ar
    19    15    16   ar
    20     3     4   ar
    21     4     5   ar
    22     5     6   ar
    23     6     7   ar
    24     7     8    1
    25     8     9    1
    26     9    10    1
    27    10    29    1
    28    29    30    1
    29    30    31    1
    30    29    33    1
    31    33    34    1
    32    10    11    1
    33     7     2   ar
    34    16    12   ar
    35    11     6    1
    36    22    17   ar
    37    31    32    1
    38    34    35    1
@<TRIPOS>MOLECULE
*****
 35 38 0 0 0
SMALL
GASTEIGER

@<TRIPOS>ATOM
      1 C         143.9847  143.3485  164.0890 C.3     1  UNL1        0.0308
      2 C         142.5698  142.9458  164.3818 C.ar    1  UNL1       -0.0230
      3 C         141.5425  142.9672  163.2891 C.ar    1  UNL1        0.0348
      4 C         140.1275  142.5646  163.5819 C.ar    1  UNL1        0.0025
      5 C         139.7398  142.1406  164.9675 C.ar    1  UNL1       -0.0031
      6 C         140.7671  142.1192  166.0603 C.ar    1  UNL1       -0.0103
      7 C         142.1821  142.5218  165.7675 C.ar    1  UNL1       -0.0273
      8 C         143.2094  142.5005  166.8603 C.3     1  UNL1        0.0431
      9 C         142.8217  142.0765  168.2459 C.3     1  UNL1        0.0772
     10 N         141.4067  141.6739  168.5387 N.3     1  UNL1       -0.2657
     11 C         140.3794  141.6952  167.4459 C.3     1  UNL1        0.0989
     12 C         141.9301  143.3912  161.9034 C.ar    1  UNL1        0.2033
     13 N         141.9006  144.7927  161.3696 N.ar    1  UNL1       -0.0556
     14 O         142.3676  144.7558  159.9446 O.2     1  UNL1       -0.3324
     15 C         142.6857  143.3315  159.5978 C.ar    1  UNL1        0.2600
     16 N         142.4154  142.4882  160.8084 N.ar    1  UNL1       -0.1870
     17 C         143.1863  142.8374  158.2730 C.ar    1  UNL1        0.0569
     18 C         142.2122  142.4265  157.2089 C.ar    1  UNL1        0.0079
     19 C         142.7128  141.9324  155.8841 C.ar    1  UNL1        0.0377
     20 C         144.1876  141.8492  155.6233 C.ar    1  UNL1        0.1479
     21 C         145.1619  142.2600  156.6874 C.ar    1  UNL1        0.1024
     22 C         144.6611  142.7541  158.0122 C.ar    1  UNL1        0.0181
     23 C         146.6367  142.1767  156.4265 C.1     1  UNL1        0.1035
     24 N         148.1115  142.0935  156.1657 N.1     1  UNL1       -0.1907
     25 O         144.6883  141.3550  154.2984 O.3     1  UNL1       -0.4785
     26 C         144.5141  139.9138  153.9210 C.3     1  UNL1        0.1662
     27 C         144.8555  138.8342  154.9048 C.3     1  UNL1        0.0472
     28 C         143.9984  139.5521  152.5596 C.3     1  UNL1        0.0472
     29 C         141.0191  141.2499  169.9244 C.3     1  UNL1        0.1169
     30 C         139.8290  140.3605  170.1312 C.3     1  UNL1        0.1555
     31 O         139.7817  139.4327  171.3090 O.3     1  UNL1       -0.3805
     32 H         140.4738  138.7592  171.2180 H       1  UNL1        0.2105
     33 C         141.8215  141.7153  171.1031 C.3     1  UNL1        0.1555
     34 O         142.3069  140.7237  172.1186 O.3     1  UNL1       -0.3805
     35 H         141.5473  140.3371  172.5817 H       1  UNL1        0.2105
@<TRIPOS>BOND
     1     1     2    1
     2     2     3   ar
     3     3    12    1
     4    12    13   ar
     5    13    14   ar
     6    14    15   ar
     7    15    17    1
     8    17    18   ar
     9    18    19   ar
    10    19    20   ar
    11    20    25    1
    12    25    26    1
    13    26    27    1
    14    26    28    1
    15    20    21   ar
    16    21    23    1
    17    23    24    3
    18    21    22   ar
    19    15    16   ar
    20     3     4   ar
    21     4     5   ar
    22     5     6   ar
    23     6     7   ar
    24     7     8    1
    25     8     9    1
    26     9    10    1
    27    10    29    1
    28    29    30    1
    29    30    31    1
    30    29    33    1
    31    33    34    1
    32    10    11    1
    33     7     2   ar
    34    16    12   ar
    35    11     6    1
    36    22    17   ar
    37    31    32    1
    38    34    35    1
@<TRIPOS>MOLECULE
*****
 35 38 0 0 0
SMALL
GASTEIGER

@<TRIPOS>ATOM
      1 C         143.9589  143.3999  164.0502 C.3     1  UNL1        0.0308
      2 C         142.5536  142.9655  164.3439 C.ar    1  UNL1       -0.0230
      3 C         141.5191  142.9884  163.2579 C.ar    1  UNL1        0.0348
      4 C         140.1137  142.5541  163.5516 C.ar    1  UNL1        0.0025
      5 C         139.7428  142.0968  164.9312 C.ar    1  UNL1       -0.0031
      6 C         140.7773  142.0739  166.0172 C.ar    1  UNL1       -0.0103
      7 C         142.1827  142.5083  165.7235 C.ar    1  UNL1       -0.0273
      8 C         143.2171  142.4854  166.8095 C.3     1  UNL1        0.0431
      9 C         142.8462  142.0282  168.1890 C.3     1  UNL1        0.0772
     10 N         141.4409  141.5938  168.4827 N.3     1  UNL1       -0.2657
     11 C         140.4064  141.6167  167.3968 C.3     1  UNL1        0.0989
     12 C         141.8900  143.4457  161.8782 C.ar    1  UNL1        0.2033
     13 N         141.5241  144.7613  161.2574 N.ar    1  UNL1       -0.0556
     14 O         142.0998  144.7963  159.8726 O.2     1  UNL1       -0.3324
     15 C         142.8215  143.5024  159.6378 C.ar    1  UNL1        0.2600
     16 N         142.6918  142.6677  160.8773 N.ar    1  UNL1       -0.1870
     17 C         143.5456  143.1119  158.3837 C.ar    1  UNL1        0.0569
     18 C         144.9151  142.5054  158.4662 C.ar    1  UNL1        0.0079
     19 C         145.6393  142.1148  157.2121 C.ar    1  UNL1        0.0377
     20 C         144.9940  142.3307  155.8753 C.ar    1  UNL1        0.1479
     21 C         143.6245  142.9372  155.7926 C.ar    1  UNL1        0.1024
     22 C         142.9004  143.3277  157.0469 C.ar    1  UNL1        0.0181
     23 C         142.9793  143.1530  154.4558 C.1     1  UNL1        0.1035
     24 N         142.3340  143.3689  153.1190 N.1     1  UNL1       -0.1907
     25 O         145.7182  141.9401  154.6211 O.3     1  UNL1       -0.4785
     26 C         146.8525  142.7822  154.1168 C.3     1  UNL1        0.1662
     27 C         148.2001  142.1650  153.8864 C.3     1  UNL1        0.0472
     28 C         146.6391  144.2414  153.8428 C.3     1  UNL1        0.0472
     29 C         141.0700  141.1365  169.8624 C.3     1  UNL1        0.1169
     30 C         141.4606  141.9580  171.0551 C.3     1  UNL1        0.1555
     31 O         140.4923  142.1475  172.1849 O.3     1  UNL1       -0.3805
     32 H         139.7310  142.6627  171.8753 H       1  UNL1        0.2105
     33 C         140.3084  139.8578  170.0493 C.3     1  UNL1        0.1555
     34 O         139.8207  139.4678  171.4131 O.3     1  UNL1       -0.3805
     35 H         140.5803  139.2900  171.9895 H       1  UNL1        0.2105
@<TRIPOS>BOND
     1     1     2    1
     2     2     3   ar
     3     3    12    1
     4    12    13   ar
     5    13    14   ar
     6    14    15   ar
     7    15    17    1
     8    17    18   ar
     9    18    19   ar
    10    19    20   ar
    11    20    25    1
    12    25    26    1
    13    26    27    1
    14    26    28    1
    15    20    21   ar
    16    21    23    1
    17    23    24    3
    18    21    22   ar
    19    15    16   ar
    20     3     4   ar
    21     4     5   ar
    22     5     6   ar
    23     6     7   ar
    24     7     8    1
    25     8     9    1
    26     9    10    1
    27    10    29    1
    28    29    30    1
    29    30    31    1
    30    29    33    1
    31    33    34    1
    32    10    11    1
    33     7     2   ar
    34    16    12   ar
    35    11     6    1
    36    22    17   ar
    37    31    32    1
    38    34    35    1
@<TRIPOS>MOLECULE
*****
 35 38 0 0 0
SMALL
GASTEIGER

@<TRIPOS>ATOM
      1 C         140.4800  142.4461  163.0985 C.3     1  UNL1        0.0308
      2 C         141.7723  142.6293  163.8378 C.ar    1  UNL1       -0.0230
      3 C         142.9880  143.1241  163.1118 C.ar    1  UNL1        0.0348
      4 C         144.2802  143.3074  163.8511 C.ar    1  UNL1        0.0025
      5 C         144.3567  142.9959  165.3164 C.ar    1  UNL1       -0.0031
      6 C         143.1409  142.5011  166.0425 C.ar    1  UNL1       -0.0103
      7 C         141.8487  142.3178  165.3032 C.ar    1  UNL1       -0.0273
      8 C         140.6329  141.8231  166.0292 C.3     1  UNL1        0.0431
      9 C         140.7094  141.5116  167.4944 C.3     1  UNL1        0.0772
     10 N         142.0016  141.6949  168.2337 N.3     1  UNL1       -0.2657
     11 C         143.2174  142.1896  167.5077 C.3     1  UNL1        0.0989
     12 C         142.9116  143.4356  161.6465 C.ar    1  UNL1        0.2033
     13 N         142.1243  144.5492  161.0218 N.ar    1  UNL1       -0.0556
     14 O         142.3352  144.4901  159.5378 O.2     1  UNL1       -0.3324
     15 C         143.2527  143.3400  159.2454 C.ar    1  UNL1        0.2600
     16 N         143.6089  142.6883  160.5487 N.ar    1  UNL1       -0.1870
     17 C         143.7302  142.9160  157.8882 C.ar    1  UNL1        0.0569
     18 C         142.7440  142.7081  156.7772 C.ar    1  UNL1        0.0079
     19 C         143.2214  142.2842  155.4200 C.ar    1  UNL1        0.0377
     20 C         144.6852  142.0680  155.1736 C.ar    1  UNL1        0.1479
     21 C         145.6715  142.2759  156.2845 C.ar    1  UNL1        0.1024
     22 C         145.1939  142.6999  157.6418 C.ar    1  UNL1        0.0181
     23 C         147.1352  142.0598  156.0381 C.1     1  UNL1        0.1035
     24 N         148.5990  141.8436  155.7916 N.1     1  UNL1       -0.1907
     25 O         145.1626  141.6441  153.8163 O.3     1  UNL1       -0.4785
     26 C         145.3444  140.1878  153.5063 C.3     1  UNL1        0.1662
     27 C         145.9272  139.7683  152.1893 C.3     1  UNL1        0.0472
     28 C         144.9434  139.1509  154.5133 C.3     1  UNL1        0.0472
     29 C         142.0781  141.3834  169.6991 C.3     1  UNL1        0.1169
     30 C         141.8765  142.4738  170.7092 C.3     1  UNL1        0.1555
     31 O         142.0590  142.1861  172.1700 O.3     1  UNL1       -0.3805
     32 H         141.3760  141.5635  172.4647 H       1  UNL1        0.2105
     33 C         142.3561  139.9814  170.1543 C.3     1  UNL1        0.1555
     34 O         143.4726  139.7138  171.1195 O.3     1  UNL1       -0.3805
     35 H         144.3214  139.9186  170.6970 H       1  UNL1        0.2105
@<TRIPOS>BOND
     1     1     2    1
     2     2     3   ar
     3     3    12    1
     4    12    13   ar
     5    13    14   ar
     6    14    15   ar
     7    15    17    1
     8    17    18   ar
     9    18    19   ar
    10    19    20   ar
    11    20    25    1
    12    25    26    1
    13    26    27    1
    14    26    28    1
    15    20    21   ar
    16    21    23    1
    17    23    24    3
    18    21    22   ar
    19    15    16   ar
    20     3     4   ar
    21     4     5   ar
    22     5     6   ar
    23     6     7   ar
    24     7     8    1
    25     8     9    1
    26     9    10    1
    27    10    29    1
    28    29    30    1
    29    30    31    1
    30    29    33    1
    31    33    34    1
    32    10    11    1
    33     7     2   ar
    34    16    12   ar
    35    11     6    1
    36    22    17   ar
    37    31    32    1
    38    34    35    1
@<TRIPOS>MOLECULE
*****
 35 38 0 0 0
SMALL
GASTEIGER

@<TRIPOS>ATOM
      1 C         138.1520  140.2916  164.1638 C.3     1  UNL1        0.0308
      2 C         139.2591  141.2460  164.5007 C.ar    1  UNL1       -0.0230
      3 C         139.7128  142.2558  163.4886 C.ar    1  UNL1        0.0348
      4 C         140.8199  143.2102  163.8254 C.ar    1  UNL1        0.0025
      5 C         141.4733  143.1548  165.1745 C.ar    1  UNL1       -0.0031
      6 C         141.0196  142.1450  166.1867 C.ar    1  UNL1       -0.0103
      7 C         139.9125  141.1906  165.8498 C.ar    1  UNL1       -0.0273
      8 C         139.4589  140.1808  166.8620 C.3     1  UNL1        0.0431
      9 C         140.1123  140.1255  168.2110 C.3     1  UNL1        0.0772
     10 N         141.2194  141.0798  168.5479 N.3     1  UNL1       -0.2657
     11 C         141.6730  142.0896  167.5357 C.3     1  UNL1        0.0989
     12 C         139.0594  142.3112  162.1394 C.ar    1  UNL1        0.2033
     13 N         137.9264  143.2116  161.7450 N.ar    1  UNL1       -0.0556
     14 O         137.5910  142.9329  160.3097 O.2     1  UNL1       -0.3324
     15 C         138.5167  141.8602  159.8172 C.ar    1  UNL1        0.2600
     16 N         139.4242  141.4760  160.9481 N.ar    1  UNL1       -0.1870
     17 C         138.5322  141.2746  158.4364 C.ar    1  UNL1        0.0569
     18 C         139.3636  140.0603  158.1460 C.ar    1  UNL1        0.0079
     19 C         139.3791  139.4747  156.7652 C.ar    1  UNL1        0.0377
     20 C         138.5632  140.1033  155.6747 C.ar    1  UNL1        0.1479
     21 C         137.7318  141.3177  155.9650 C.ar    1  UNL1        0.1024
     22 C         137.7164  141.9033  157.3460 C.ar    1  UNL1        0.0181
     23 C         136.9160  141.9463  154.8746 C.1     1  UNL1        0.1035
     24 N         136.1001  142.5750  153.7841 N.1     1  UNL1       -0.1907
     25 O         138.5787  139.5177  154.2938 O.3     1  UNL1       -0.4785
     26 C         138.0610  138.1291  154.0622 C.3     1  UNL1        0.1662
     27 C         139.0118  137.0227  153.7129 C.3     1  UNL1        0.0472
     28 C         136.5926  137.8468  154.1799 C.3     1  UNL1        0.0472
     29 C         141.8728  141.0244  169.8970 C.3     1  UNL1        0.1169
     30 C         142.3703  139.7161  170.4362 C.3     1  UNL1        0.1555
     31 O         143.6430  139.6667  171.2286 O.3     1  UNL1       -0.3805
     32 H         144.3899  139.9007  170.6556 H       1  UNL1        0.2105
     33 C         142.0287  142.2774  170.7068 C.3     1  UNL1        0.1555
     34 O         142.1390  142.1961  172.2005 O.3     1  UNL1       -0.3805
     35 H         141.3040  141.8675  172.5690 H       1  UNL1        0.2105
@<TRIPOS>BOND
     1     1     2    1
     2     2     3   ar
     3     3    12    1
     4    12    13   ar
     5    13    14   ar
     6    14    15   ar
     7    15    17    1
     8    17    18   ar
     9    18    19   ar
    10    19    20   ar
    11    20    25    1
    12    25    26    1
    13    26    27    1
    14    26    28    1
    15    20    21   ar
    16    21    23    1
    17    23    24    3
    18    21    22   ar
    19    15    16   ar
    20     3     4   ar
    21     4     5   ar
    22     5     6   ar
    23     6     7   ar
    24     7     8    1
    25     8     9    1
    26     9    10    1
    27    10    29    1
    28    29    30    1
    29    30    31    1
    30    29    33    1
    31    33    34    1
    32    10    11    1
    33     7     2   ar
    34    16    12   ar
    35    11     6    1
    36    22    17   ar
    37    31    32    1
    38    34    35    1
