@<TRIPOS>MOLECULE
*****
 43 46 0 0 0
SMALL
GASTEIGER

@<TRIPOS>ATOM
      1 C         141.8091  140.8729  162.7728 C.3     1  UNL1        0.0798
      2 C         141.6625  140.6991  164.2555 C.ar    1  UNL1        0.0374
      3 C         141.2969  141.8723  165.1156 C.ar    1  UNL1        0.0023
      4 C         141.1504  141.6986  166.5983 C.ar    1  UNL1        0.0183
      5 C         140.7848  142.8718  167.4584 C.ar    1  UNL1        0.0118
      6 C         140.6382  142.6980  168.9411 C.ar    1  UNL1        0.0685
      7 C         140.8572  141.3510  169.5636 C.ar    1  UNL1        0.0118
      8 C         141.2228  140.1778  168.7035 C.ar    1  UNL1        0.0199
      9 C         141.3694  140.3515  167.2208 C.ar    1  UNL1        0.0844
     10 N         141.7350  139.1783  166.3607 N.ar    1  UNL1       -0.2119
     11 C         141.8816  139.3521  164.8780 C.ar    1  UNL1        0.2211
     12 C         140.2726  143.8713  169.8012 C.1     1  UNL1        0.1004
     13 N         139.9070  145.0445  170.6614 N.1     1  UNL1       -0.1908
     14 O         142.2472  138.1789  164.0178 O.3     1  UNL1       -0.4563
     15 C         141.2711  137.0559  163.8267 C.3     1  UNL1        0.2542
     16 C         141.0412  139.9898  161.8346 C.ar    1  UNL1        0.0115
     17 C         141.7550  139.2691  160.7296 C.ar    1  UNL1       -0.0017
     18 C         140.9871  138.3859  159.7913 C.ar    1  UNL1       -0.0005
     19 C         139.5052  138.2235  159.9581 C.ar    1  UNL1       -0.0021
     20 C         138.7914  138.9442  161.0631 C.ar    1  UNL1        0.0053
     21 C         137.3095  138.7818  161.2298 C.3     1  UNL1        0.0334
     22 C         139.5593  139.8273  162.0013 C.ar    1  UNL1        0.1325
     23 F         138.8455  140.5480  163.1062 F       1  UNL1       -0.2048
     24 C         142.7237  141.9299  162.2283 C.3     1  UNL1        0.1160
     25 O         143.9018  141.2165  162.8225 O.3     1  UNL1       -0.3820
     26 H         144.7134  141.7072  162.6186 H       1  UNL1        0.2107
     27 C         140.2041  143.4235  159.5505 C.ar    1  UNL1        0.1070
     28 C         141.3823  142.7101  160.1446 C.ar    1  UNL1        0.0235
     29 C         141.5455  142.6433  161.6342 C.ar    1  UNL1        0.0064
     30 C         140.5306  143.2899  162.5296 C.ar    1  UNL1        0.0235
     31 C         139.3524  144.0032  161.9355 C.ar    1  UNL1        0.1070
     32 N         139.1892  144.0700  160.4459 N.ar    1  UNL1       -0.2330
     33 S         140.0409  143.4902  158.0608 S.3     1  UNL1       -0.0950
     34 C         138.5800  141.3421  158.0239 C.3     1  UNL1        0.0130
     35 C         139.0291  142.6189  157.3774 C.3     1  UNL1        0.0637
     36 S         138.3375  144.6498  162.8310 S.3     1  UNL1       -0.0950
     37 C         138.1320  144.1362  164.2252 C.3     1  UNL1        0.0637
     38 C         138.6432  144.9214  165.3966 C.3     1  UNL1        0.0130
     39 C         143.6382  142.9869  161.6839 C.3     1  UNL1        0.0491
     40 C         144.5270  143.7603  162.6122 C.3     1  UNL1        0.0750
     41 N         144.0019  144.2282  163.9371 N.3     1  UNL1       -0.2702
     42 C         144.5130  143.6129  165.2060 C.3     1  UNL1        0.0897
     43 C         142.9657  145.3112  163.9931 C.3     1  UNL1        0.0897
@<TRIPOS>BOND
     1    34    35    1
     2    35    33    1
     3    33    27    1
     4    27    28   ar
     5    28    29   ar
     6    29    24    1
     7    24    25    1
     8    24    39    1
     9    39    40    1
    10    40    41    1
    11    41    42    1
    12    41    43    1
    13    24     1    1
    14     1     2    1
    15     2     3   ar
    16     3     4   ar
    17     4     5   ar
    18     5     6   ar
    19     6    12    1
    20    12    13    3
    21     6     7   ar
    22     7     8   ar
    23     8     9   ar
    24     9    10   ar
    25    10    11   ar
    26    11    14    1
    27    14    15    1
    28     1    16    1
    29    16    17   ar
    30    17    18   ar
    31    18    19   ar
    32    19    20   ar
    33    20    21    1
    34    20    22   ar
    35    22    23    1
    36    29    30   ar
    37    30    31   ar
    38    31    36    1
    39    36    37    1
    40    37    38    1
    41    31    32   ar
    42    32    27   ar
    43    11     2   ar
    44    22    16   ar
    45     9     4   ar
    46    25    26    1
@<TRIPOS>MOLECULE
*****
 43 46 0 0 0
SMALL
GASTEIGER

@<TRIPOS>ATOM
      1 C         141.8274  140.9393  162.4205 C.3     1  UNL1        0.0798
      2 C         141.6308  140.7009  163.8884 C.ar    1  UNL1        0.0374
      3 C         141.3199  141.8509  164.7998 C.ar    1  UNL1        0.0023
      4 C         141.1234  141.6127  166.2677 C.ar    1  UNL1        0.0183
      5 C         140.8124  142.7627  167.1791 C.ar    1  UNL1        0.0118
      6 C         140.6159  142.5244  168.6470 C.ar    1  UNL1        0.0685
      7 C         140.7302  141.1361  169.2034 C.ar    1  UNL1        0.0118
      8 C         141.0412  139.9861  168.2919 C.ar    1  UNL1        0.0199
      9 C         141.2377  140.2243  166.8241 C.ar    1  UNL1        0.0844
     10 N         141.5486  139.0743  165.9126 N.ar    1  UNL1       -0.2119
     11 C         141.7452  139.3127  164.4447 C.ar    1  UNL1        0.2211
     12 C         140.3049  143.6744  169.5585 C.1     1  UNL1        0.1004
     13 N         139.9940  144.8244  170.4700 N.1     1  UNL1       -0.1908
     14 O         142.0561  138.1626  163.5332 O.3     1  UNL1       -0.4563
     15 C         141.0604  137.0547  163.3572 C.3     1  UNL1        0.2542
     16 C         141.0077  140.1787  161.4208 C.ar    1  UNL1        0.0115
     17 C         141.6856  139.3612  160.3615 C.ar    1  UNL1       -0.0017
     18 C         140.8659  138.6005  159.3618 C.ar    1  UNL1       -0.0005
     19 C         139.3681  138.6574  159.4213 C.ar    1  UNL1       -0.0021
     20 C         138.6902  139.4749  160.4806 C.ar    1  UNL1        0.0053
     21 C         137.1924  139.5318  160.5401 C.3     1  UNL1        0.0334
     22 C         139.5099  140.2355  161.4803 C.ar    1  UNL1        0.1325
     23 F         138.8319  141.0530  162.5395 F       1  UNL1       -0.2048
     24 C         142.8438  141.9382  161.9523 C.3     1  UNL1        0.1160
     25 O         143.9425  141.0786  162.5036 O.3     1  UNL1       -0.3820
     26 H         144.7990  141.5024  162.3370 H       1  UNL1        0.2107
     27 C         139.7227  144.3836  161.7823 C.ar    1  UNL1        0.1070
     28 C         140.8215  143.5241  162.3335 C.ar    1  UNL1        0.0235
     29 C         141.7450  142.7978  161.4011 C.ar    1  UNL1        0.0064
     30 C         141.5698  142.9311  159.9174 C.ar    1  UNL1        0.0235
     31 C         140.4711  143.7906  159.3661 C.ar    1  UNL1        0.1070
     32 N         139.5475  144.5169  160.2985 N.ar    1  UNL1       -0.2330
     33 S         138.7991  145.1099  162.7148 S.3     1  UNL1       -0.0950
     34 C         138.5609  144.8086  165.2843 C.3     1  UNL1        0.0130
     35 C         138.2019  144.3921  163.8888 C.3     1  UNL1        0.0637
     36 S         140.2959  143.9239  157.8823 S.3     1  UNL1       -0.0950
     37 C         140.7160  145.1853  157.1878 C.3     1  UNL1        0.0637
     38 C         141.9862  145.8750  157.5888 C.3     1  UNL1        0.0130
     39 C         143.8601  142.9372  161.4842 C.3     1  UNL1        0.0491
     40 C         144.7583  143.6145  162.4764 C.3     1  UNL1        0.0750
     41 N         144.2203  144.0304  163.8134 N.3     1  UNL1       -0.2702
     42 C         143.3271  145.2306  163.9220 C.3     1  UNL1        0.0897
     43 C         144.5753  143.2462  165.0417 C.3     1  UNL1        0.0897
@<TRIPOS>BOND
     1    34    35    1
     2    35    33    1
     3    33    27    1
     4    27    28   ar
     5    28    29   ar
     6    29    24    1
     7    24    25    1
     8    24    39    1
     9    39    40    1
    10    40    41    1
    11    41    42    1
    12    41    43    1
    13    24     1    1
    14     1     2    1
    15     2     3   ar
    16     3     4   ar
    17     4     5   ar
    18     5     6   ar
    19     6    12    1
    20    12    13    3
    21     6     7   ar
    22     7     8   ar
    23     8     9   ar
    24     9    10   ar
    25    10    11   ar
    26    11    14    1
    27    14    15    1
    28     1    16    1
    29    16    17   ar
    30    17    18   ar
    31    18    19   ar
    32    19    20   ar
    33    20    21    1
    34    20    22   ar
    35    22    23    1
    36    29    30   ar
    37    30    31   ar
    38    31    36    1
    39    36    37    1
    40    37    38    1
    41    31    32   ar
    42    32    27   ar
    43    11     2   ar
    44    22    16   ar
    45     9     4   ar
    46    25    26    1
@<TRIPOS>MOLECULE
*****
 43 46 0 0 0
SMALL
GASTEIGER

@<TRIPOS>ATOM
      1 C         141.7990  140.9658  162.3931 C.3     1  UNL1        0.0798
      2 C         141.5978  140.7167  163.8586 C.ar    1  UNL1        0.0374
      3 C         141.2978  141.8619  164.7797 C.ar    1  UNL1        0.0023
      4 C         141.0965  141.6129  166.2451 C.ar    1  UNL1        0.0183
      5 C         140.7965  142.7581  167.1662 C.ar    1  UNL1        0.0118
      6 C         140.5952  142.5090  168.6317 C.ar    1  UNL1        0.0685
      7 C         140.6939  141.1148  169.1760 C.ar    1  UNL1        0.0118
      8 C         140.9939  139.9696  168.2549 C.ar    1  UNL1        0.0199
      9 C         141.1952  140.2186  166.7895 C.ar    1  UNL1        0.0844
     10 N         141.4952  139.0734  165.8684 N.ar    1  UNL1       -0.2119
     11 C         141.6965  139.3224  164.4029 C.ar    1  UNL1        0.2211
     12 C         140.2952  143.6543  169.5528 C.1     1  UNL1        0.1004
     13 N         139.9952  144.7995  170.4740 N.1     1  UNL1       -0.1908
     14 O         141.9965  138.1772  163.4818 O.3     1  UNL1       -0.4563
     15 C         140.9877  137.0834  163.2919 C.3     1  UNL1        0.2542
     16 C         141.0056  140.1893  161.3845 C.ar    1  UNL1        0.0115
     17 C         139.5120  140.1149  161.5014 C.ar    1  UNL1       -0.0017
     18 C         138.7185  139.3384  160.4928 C.ar    1  UNL1       -0.0005
     19 C         139.4185  138.6363  159.3672 C.ar    1  UNL1       -0.0021
     20 C         140.9122  138.7107  159.2503 C.ar    1  UNL1        0.0053
     21 C         141.6123  138.0086  158.1247 C.3     1  UNL1        0.0334
     22 C         141.7057  139.4872  160.2589 C.ar    1  UNL1        0.1325
     23 F         143.1992  139.5616  160.1420 F       1  UNL1       -0.2048
     24 C         142.7938  141.9914  161.9364 C.3     1  UNL1        0.1160
     25 O         143.9094  141.1569  162.4924 O.3     1  UNL1       -0.3820
     26 H         144.7564  141.6023  162.3338 H       1  UNL1        0.2107
     27 C         139.5964  144.3350  161.7525 C.ar    1  UNL1        0.1070
     28 C         140.7120  143.5005  162.3084 C.ar    1  UNL1        0.0235
     29 C         141.6782  142.8258  161.3805 C.ar    1  UNL1        0.0064
     30 C         141.5288  142.9856  159.8965 C.ar    1  UNL1        0.0235
     31 C         140.4132  143.8201  159.3406 C.ar    1  UNL1        0.1070
     32 N         139.4470  144.4948  160.2685 N.ar    1  UNL1       -0.2330
     33 S         138.6301  145.0097  162.6805 S.3     1  UNL1       -0.0950
     34 C         138.4865  144.7555  165.2621 C.3     1  UNL1        0.0130
     35 C         138.1171  144.2819  163.8877 C.3     1  UNL1        0.0637
     36 S         140.2639  143.9799  157.8565 S.3     1  UNL1       -0.0950
     37 C         140.6807  145.2596  157.1943 C.3     1  UNL1        0.0637
     38 C         142.0411  145.8330  157.4598 C.3     1  UNL1        0.0130
     39 C         143.7886  143.0170  161.4797 C.3     1  UNL1        0.0491
     40 C         144.6767  143.6974  162.4788 C.3     1  UNL1        0.0750
     41 N         144.1408  144.0654  163.8306 N.3     1  UNL1       -0.2702
     42 C         143.1540  145.1869  163.9663 C.3     1  UNL1        0.0897
     43 C         144.5916  143.3119  165.0467 C.3     1  UNL1        0.0897
@<TRIPOS>BOND
     1    34    35    1
     2    35    33    1
     3    33    27    1
     4    27    28   ar
     5    28    29   ar
     6    29    24    1
     7    24    25    1
     8    24    39    1
     9    39    40    1
    10    40    41    1
    11    41    42    1
    12    41    43    1
    13    24     1    1
    14     1     2    1
    15     2     3   ar
    16     3     4   ar
    17     4     5   ar
    18     5     6   ar
    19     6    12    1
    20    12    13    3
    21     6     7   ar
    22     7     8   ar
    23     8     9   ar
    24     9    10   ar
    25    10    11   ar
    26    11    14    1
    27    14    15    1
    28     1    16    1
    29    16    17   ar
    30    17    18   ar
    31    18    19   ar
    32    19    20   ar
    33    20    21    1
    34    20    22   ar
    35    22    23    1
    36    29    30   ar
    37    30    31   ar
    38    31    36    1
    39    36    37    1
    40    37    38    1
    41    31    32   ar
    42    32    27   ar
    43    11     2   ar
    44    22    16   ar
    45     9     4   ar
    46    25    26    1
@<TRIPOS>MOLECULE
*****
 43 46 0 0 0
SMALL
GASTEIGER

@<TRIPOS>ATOM
      1 C         141.6133  142.1989  162.6041 C.3     1  UNL1        0.0798
      2 C         141.8676  141.9925  164.0680 C.ar    1  UNL1        0.0374
      3 C         140.7538  141.5428  164.9665 C.ar    1  UNL1        0.0023
      4 C         141.0080  141.3364  166.4303 C.ar    1  UNL1        0.0183
      5 C         139.8942  140.8867  167.3288 C.ar    1  UNL1        0.0118
      6 C         140.1485  140.6803  168.7927 C.ar    1  UNL1        0.0685
      7 C         141.5164  140.9235  169.3580 C.ar    1  UNL1        0.0118
      8 C         142.6301  141.3732  168.4594 C.ar    1  UNL1        0.0199
      9 C         142.3760  141.5797  166.9956 C.ar    1  UNL1        0.0844
     10 N         143.4897  142.0294  166.0971 N.ar    1  UNL1       -0.2119
     11 C         143.2355  142.2358  164.6333 C.ar    1  UNL1        0.2211
     12 C         139.0347  140.2306  169.6912 C.1     1  UNL1        0.1004
     13 N         137.9210  139.7809  170.5897 N.1     1  UNL1       -0.1908
     14 O         144.3492  142.6855  163.7347 O.3     1  UNL1       -0.4563
     15 C         145.5627  141.8222  163.5547 C.3     1  UNL1        0.2542
     16 C         142.4387  141.4656  161.5888 C.ar    1  UNL1        0.0115
     17 C         143.1062  142.2208  160.4780 C.ar    1  UNL1       -0.0017
     18 C         143.9317  141.4875  159.4626 C.ar    1  UNL1       -0.0005
     19 C         144.0896  139.9989  159.5582 C.ar    1  UNL1       -0.0021
     20 C         143.4220  139.2436  160.6691 C.ar    1  UNL1        0.0053
     21 C         143.5799  137.7550  160.7646 C.3     1  UNL1        0.0334
     22 C         142.5966  139.9770  161.6843 C.ar    1  UNL1        0.1325
     23 F         141.9291  139.2217  162.7952 F       1  UNL1       -0.2048
     24 C         140.5337  143.1388  162.1556 C.3     1  UNL1        0.1160
     25 O         141.2062  144.2613  162.8889 O.3     1  UNL1       -0.3820
     26 H         140.6929  145.0762  162.7735 H       1  UNL1        0.2107
     27 C         138.6237  139.7320  161.4514 C.ar    1  UNL1        0.1070
     28 C         139.2962  140.8545  162.1847 C.ar    1  UNL1        0.0235
     29 C         139.8612  142.0162  161.4224 C.ar    1  UNL1        0.0064
     30 C         139.7536  142.0555  159.9268 C.ar    1  UNL1        0.0235
     31 C         139.0811  140.9329  159.1935 C.ar    1  UNL1        0.1070
     32 N         138.5161  139.7712  159.9558 N.ar    1  UNL1       -0.2330
     33 S         138.0587  138.5702  162.2138 S.3     1  UNL1       -0.0950
     34 C         139.1233  137.9868  164.5108 C.3     1  UNL1        0.0130
     35 C         138.9618  137.7087  163.0457 C.3     1  UNL1        0.0637
     36 S         138.9735  140.9722  157.6978 S.3     1  UNL1       -0.0950
     37 C         140.1929  140.7527  156.8522 C.3     1  UNL1        0.0637
     38 C         141.2105  139.7271  157.2554 C.3     1  UNL1        0.0130
     39 C         139.4540  144.0786  161.7072 C.3     1  UNL1        0.0491
     40 C         138.6930  144.8838  162.7182 C.3     1  UNL1        0.0750
     41 N         138.3199  144.2731  164.0365 N.3     1  UNL1       -0.2702
     42 C         138.8274  144.8760  165.3128 C.3     1  UNL1        0.0897
     43 C         137.4394  143.0596  164.0785 C.3     1  UNL1        0.0897
@<TRIPOS>BOND
     1    34    35    1
     2    35    33    1
     3    33    27    1
     4    27    28   ar
     5    28    29   ar
     6    29    24    1
     7    24    25    1
     8    24    39    1
     9    39    40    1
    10    40    41    1
    11    41    42    1
    12    41    43    1
    13    24     1    1
    14     1     2    1
    15     2     3   ar
    16     3     4   ar
    17     4     5   ar
    18     5     6   ar
    19     6    12    1
    20    12    13    3
    21     6     7   ar
    22     7     8   ar
    23     8     9   ar
    24     9    10   ar
    25    10    11   ar
    26    11    14    1
    27    14    15    1
    28     1    16    1
    29    16    17   ar
    30    17    18   ar
    31    18    19   ar
    32    19    20   ar
    33    20    21    1
    34    20    22   ar
    35    22    23    1
    36    29    30   ar
    37    30    31   ar
    38    31    36    1
    39    36    37    1
    40    37    38    1
    41    31    32   ar
    42    32    27   ar
    43    11     2   ar
    44    22    16   ar
    45     9     4   ar
    46    25    26    1
@<TRIPOS>MOLECULE
*****
 43 46 0 0 0
SMALL
GASTEIGER

@<TRIPOS>ATOM
      1 C         141.5914  142.1430  162.5346 C.3     1  UNL1        0.0798
      2 C         141.8618  141.9357  163.9954 C.ar    1  UNL1        0.0374
      3 C         140.7542  141.5013  164.9089 C.ar    1  UNL1        0.0023
      4 C         141.0246  141.2940  166.3697 C.ar    1  UNL1        0.0183
      5 C         139.9170  140.8596  167.2832 C.ar    1  UNL1        0.0118
      6 C         140.1874  140.6524  168.7441 C.ar    1  UNL1        0.0685
      7 C         141.5654  140.8795  169.2913 C.ar    1  UNL1        0.0118
      8 C         142.6730  141.3138  168.3778 C.ar    1  UNL1        0.0199
      9 C         142.4026  141.5211  166.9170 C.ar    1  UNL1        0.0844
     10 N         143.5102  141.9555  166.0035 N.ar    1  UNL1       -0.2119
     11 C         143.2398  142.1628  164.5427 C.ar    1  UNL1        0.2211
     12 C         139.0798  140.2180  169.6576 C.1     1  UNL1        0.1004
     13 N         137.9722  139.7836  170.5711 N.1     1  UNL1       -0.1908
     14 O         144.3474  142.5972  163.6292 O.3     1  UNL1       -0.4563
     15 C         145.5775  141.7506  163.4866 C.3     1  UNL1        0.2542
     16 C         142.3998  141.4037  161.5099 C.ar    1  UNL1        0.0115
     17 C         143.0108  142.1460  160.3586 C.ar    1  UNL1       -0.0017
     18 C         143.8192  141.4067  159.3339 C.ar    1  UNL1       -0.0005
     19 C         144.0165  139.9252  159.4605 C.ar    1  UNL1       -0.0021
     20 C         143.4054  139.1829  160.6119 C.ar    1  UNL1        0.0053
     21 C         143.6027  137.7013  160.7385 C.3     1  UNL1        0.0334
     22 C         142.5970  139.9221  161.6366 C.ar    1  UNL1        0.1325
     23 F         141.9860  139.1798  162.7878 F       1  UNL1       -0.2048
     24 C         140.5126  143.0895  162.0985 C.3     1  UNL1        0.1160
     25 O         141.2137  144.2131  162.8029 O.3     1  UNL1       -0.3820
     26 H         140.7070  145.0324  162.6888 H       1  UNL1        0.2107
     27 C         138.9100  140.8974  159.2043 C.ar    1  UNL1        0.1070
     28 C         139.6111  142.0210  159.9087 C.ar    1  UNL1        0.0235
     29 C         139.8115  141.9660  161.3942 C.ar    1  UNL1        0.0064
     30 C         139.3108  140.7874  162.1753 C.ar    1  UNL1        0.0235
     31 C         138.6097  139.6639  161.4710 C.ar    1  UNL1        0.1070
     32 N         138.4093  139.7189  159.9855 N.ar    1  UNL1       -0.2330
     33 S         138.7096  140.9525  157.7187 S.3     1  UNL1       -0.0950
     34 C         137.1053  142.5049  156.3898 C.3     1  UNL1        0.0130
     35 C         137.3490  141.2384  157.1556 C.3     1  UNL1        0.0637
     36 S         138.1090  138.4852  162.2522 S.3     1  UNL1       -0.0950
     37 C         139.0548  137.6967  163.1088 C.3     1  UNL1        0.0637
     38 C         139.0958  137.9285  164.5902 C.3     1  UNL1        0.0130
     39 C         139.4337  144.0361  161.6624 C.3     1  UNL1        0.0491
     40 C         138.6982  144.8556  162.6810 C.3     1  UNL1        0.0750
     41 N         138.3480  144.2595  164.0121 N.3     1  UNL1       -0.2702
     42 C         138.8948  144.8635  165.2715 C.3     1  UNL1        0.0897
     43 C         137.4510  143.0595  164.0839 C.3     1  UNL1        0.0897
@<TRIPOS>BOND
     1    34    35    1
     2    35    33    1
     3    33    27    1
     4    27    28   ar
     5    28    29   ar
     6    29    24    1
     7    24    25    1
     8    24    39    1
     9    39    40    1
    10    40    41    1
    11    41    42    1
    12    41    43    1
    13    24     1    1
    14     1     2    1
    15     2     3   ar
    16     3     4   ar
    17     4     5   ar
    18     5     6   ar
    19     6    12    1
    20    12    13    3
    21     6     7   ar
    22     7     8   ar
    23     8     9   ar
    24     9    10   ar
    25    10    11   ar
    26    11    14    1
    27    14    15    1
    28     1    16    1
    29    16    17   ar
    30    17    18   ar
    31    18    19   ar
    32    19    20   ar
    33    20    21    1
    34    20    22   ar
    35    22    23    1
    36    29    30   ar
    37    30    31   ar
    38    31    36    1
    39    36    37    1
    40    37    38    1
    41    31    32   ar
    42    32    27   ar
    43    11     2   ar
    44    22    16   ar
    45     9     4   ar
    46    25    26    1
@<TRIPOS>MOLECULE
*****
 43 46 0 0 0
SMALL
GASTEIGER

@<TRIPOS>ATOM
      1 C         140.1023  141.0659  162.6086 C.3     1  UNL1        0.0798
      2 C         140.0161  140.8059  164.0834 C.ar    1  UNL1        0.0374
      3 C         140.8010  141.6523  165.0413 C.ar    1  UNL1        0.0023
      4 C         140.7147  141.3924  166.5161 C.ar    1  UNL1        0.0183
      5 C         141.4997  142.2387  167.4740 C.ar    1  UNL1        0.0118
      6 C         141.4134  141.9787  168.9488 C.ar    1  UNL1        0.0685
      7 C         140.5422  140.8725  169.4657 C.ar    1  UNL1        0.0118
      8 C         139.7573  140.0261  168.5078 C.ar    1  UNL1        0.0199
      9 C         139.8435  140.2860  167.0330 C.ar    1  UNL1        0.0844
     10 N         139.0586  139.4397  166.0751 N.ar    1  UNL1       -0.2119
     11 C         139.1449  139.6997  164.6003 C.ar    1  UNL1        0.2211
     12 C         142.1983  142.8251  169.9067 C.1     1  UNL1        0.1004
     13 N         142.9832  143.6714  170.8647 N.1     1  UNL1       -0.1908
     14 O         138.3599  138.8533  163.6424 O.3     1  UNL1       -0.4563
     15 C         138.8459  137.4805  163.2827 C.3     1  UNL1        0.2542
     16 C         140.7332  140.0496  161.7036 C.ar    1  UNL1        0.0115
     17 C         140.0123  139.5940  160.4697 C.ar    1  UNL1       -0.0017
     18 C         140.6432  138.5777  159.5645 C.ar    1  UNL1       -0.0005
     19 C         141.9950  138.0171  159.8934 C.ar    1  UNL1       -0.0021
     20 C         142.7160  138.4728  161.1274 C.ar    1  UNL1        0.0053
     21 C         144.0679  137.9121  161.4563 C.3     1  UNL1        0.0334
     22 C         142.0851  139.4890  162.0324 C.ar    1  UNL1        0.1325
     23 F         142.8061  139.9446  163.2663 F       1  UNL1       -0.2048
     24 C         139.5577  142.3421  162.0389 C.3     1  UNL1        0.1160
     25 O         138.1834  141.9643  162.5064 O.3     1  UNL1       -0.3820
     26 H         137.5551  142.6610  162.2598 H       1  UNL1        0.2107
     27 C         143.3884  143.3772  162.1045 C.ar    1  UNL1        0.1070
     28 C         142.0141  142.9994  162.5719 C.ar    1  UNL1        0.0235
     29 C         140.9320  142.7200  161.5714 C.ar    1  UNL1        0.0064
     30 C         141.2243  142.8184  160.1035 C.ar    1  UNL1        0.0235
     31 C         142.5986  143.1962  159.6361 C.ar    1  UNL1        0.1070
     32 N         143.6806  143.4756  160.6365 N.ar    1  UNL1       -0.2330
     33 S         144.4705  143.6566  163.1050 S.3     1  UNL1       -0.0950
     34 C         145.7792  141.5407  163.8533 C.3     1  UNL1        0.0130
     35 C         144.8022  142.6381  164.1551 C.3     1  UNL1        0.0637
     36 S         142.8908  143.2946  158.1680 S.3     1  UNL1       -0.0950
     37 C         143.6570  142.2032  157.4811 C.3     1  UNL1        0.0637
     38 C         143.7120  140.8311  158.0846 C.3     1  UNL1        0.0130
     39 C         139.0131  143.6184  161.4692 C.3     1  UNL1        0.0491
     40 C         138.3831  144.6351  162.3744 C.3     1  UNL1        0.0750
     41 N         138.7336  144.6606  163.8326 N.3     1  UNL1       -0.2702
     42 C         137.7447  144.1746  164.8503 C.3     1  UNL1        0.0897
     43 C         140.0731  145.1720  164.2731 C.3     1  UNL1        0.0897
@<TRIPOS>BOND
     1    34    35    1
     2    35    33    1
     3    33    27    1
     4    27    28   ar
     5    28    29   ar
     6    29    24    1
     7    24    25    1
     8    24    39    1
     9    39    40    1
    10    40    41    1
    11    41    42    1
    12    41    43    1
    13    24     1    1
    14     1     2    1
    15     2     3   ar
    16     3     4   ar
    17     4     5   ar
    18     5     6   ar
    19     6    12    1
    20    12    13    3
    21     6     7   ar
    22     7     8   ar
    23     8     9   ar
    24     9    10   ar
    25    10    11   ar
    26    11    14    1
    27    14    15    1
    28     1    16    1
    29    16    17   ar
    30    17    18   ar
    31    18    19   ar
    32    19    20   ar
    33    20    21    1
    34    20    22   ar
    35    22    23    1
    36    29    30   ar
    37    30    31   ar
    38    31    36    1
    39    36    37    1
    40    37    38    1
    41    31    32   ar
    42    32    27   ar
    43    11     2   ar
    44    22    16   ar
    45     9     4   ar
    46    25    26    1
@<TRIPOS>MOLECULE
*****
 43 46 0 0 0
SMALL
GASTEIGER

@<TRIPOS>ATOM
      1 C         139.9492  141.5753  162.8472 C.3     1  UNL1        0.0798
      2 C         140.3162  141.3747  161.4067 C.ar    1  UNL1        0.0374
      3 C         141.7134  141.6607  160.9419 C.ar    1  UNL1        0.0023
      4 C         142.0805  141.4602  159.5014 C.ar    1  UNL1        0.0183
      5 C         143.4777  141.7462  159.0367 C.ar    1  UNL1        0.0118
      6 C         143.8447  141.5457  157.5961 C.ar    1  UNL1        0.0685
      7 C         142.8146  141.0592  156.6204 C.ar    1  UNL1        0.0118
      8 C         141.4174  140.7732  157.0851 C.ar    1  UNL1        0.0199
      9 C         141.0503  140.9737  158.5256 C.ar    1  UNL1        0.0844
     10 N         139.6531  140.6877  158.9904 N.ar    1  UNL1       -0.2119
     11 C         139.2861  140.8883  160.4310 C.ar    1  UNL1        0.2211
     12 C         145.2420  141.8317  157.1313 C.1     1  UNL1        0.1004
     13 N         146.6392  142.1177  156.6665 N.1     1  UNL1       -0.1908
     14 O         137.8889  140.6023  160.8957 O.3     1  UNL1       -0.4563
     15 C         137.4478  139.1860  161.1190 C.3     1  UNL1        0.2542
     16 C         139.6545  140.3901  163.7181 C.ar    1  UNL1        0.0115
     17 C         138.3947  140.3517  164.5313 C.ar    1  UNL1       -0.0017
     18 C         138.0999  139.1665  165.4022 C.ar    1  UNL1       -0.0005
     19 C         139.0650  138.0197  165.4599 C.ar    1  UNL1       -0.0021
     20 C         140.3249  138.0580  164.6466 C.ar    1  UNL1        0.0053
     21 C         141.2900  136.9112  164.7042 C.3     1  UNL1        0.0334
     22 C         140.6196  139.2432  163.7757 C.ar    1  UNL1        0.1325
     23 F         141.8794  139.2816  162.9625 F       1  UNL1       -0.2048
     24 C         139.8769  142.9610  163.4169 C.3     1  UNL1        0.1160
     25 O         138.7747  143.2981  162.4569 O.3     1  UNL1       -0.3820
     26 H         138.4931  144.2157  162.5973 H       1  UNL1        0.2107
     27 C         141.7684  142.0492  166.7844 C.ar    1  UNL1        0.1070
     28 C         140.6663  142.3863  165.8245 C.ar    1  UNL1        0.0235
     29 C         140.9791  142.6239  164.3768 C.ar    1  UNL1        0.0064
     30 C         142.3941  142.5244  163.8892 C.ar    1  UNL1        0.0235
     31 C         143.4963  142.1873  164.8492 C.ar    1  UNL1        0.1070
     32 N         143.1834  141.9497  166.2968 N.ar    1  UNL1       -0.2330
     33 S         141.4556  141.8116  168.2321 S.3     1  UNL1       -0.0950
     34 C         140.4841  143.7064  169.7207 C.3     1  UNL1        0.0130
     35 C         141.6581  142.9101  169.2333 C.3     1  UNL1        0.0637
     36 S         144.9113  142.0877  164.3615 S.3     1  UNL1       -0.0950
     37 C         145.4057  140.8104  163.7500 C.3     1  UNL1        0.0637
     38 C         144.9566  139.4907  164.3038 C.3     1  UNL1        0.0130
     39 C         139.8046  144.3468  163.9865 C.3     1  UNL1        0.0491
     40 C         140.5864  145.4595  163.3536 C.3     1  UNL1        0.0750
     41 N         140.4754  145.7097  161.8788 N.3     1  UNL1       -0.2702
     42 C         139.3692  146.5710  161.3454 C.3     1  UNL1        0.0897
     43 C         141.4705  145.0986  160.9374 C.3     1  UNL1        0.0897
@<TRIPOS>BOND
     1    34    35    1
     2    35    33    1
     3    33    27    1
     4    27    28   ar
     5    28    29   ar
     6    29    24    1
     7    24    25    1
     8    24    39    1
     9    39    40    1
    10    40    41    1
    11    41    42    1
    12    41    43    1
    13    24     1    1
    14     1     2    1
    15     2     3   ar
    16     3     4   ar
    17     4     5   ar
    18     5     6   ar
    19     6    12    1
    20    12    13    3
    21     6     7   ar
    22     7     8   ar
    23     8     9   ar
    24     9    10   ar
    25    10    11   ar
    26    11    14    1
    27    14    15    1
    28     1    16    1
    29    16    17   ar
    30    17    18   ar
    31    18    19   ar
    32    19    20   ar
    33    20    21    1
    34    20    22   ar
    35    22    23    1
    36    29    30   ar
    37    30    31   ar
    38    31    36    1
    39    36    37    1
    40    37    38    1
    41    31    32   ar
    42    32    27   ar
    43    11     2   ar
    44    22    16   ar
    45     9     4   ar
    46    25    26    1
@<TRIPOS>MOLECULE
*****
 43 46 0 0 0
SMALL
GASTEIGER

@<TRIPOS>ATOM
      1 C         140.5818  140.7448  162.6711 C.3     1  UNL1        0.0798
      2 C         140.3259  140.6325  164.1449 C.ar    1  UNL1        0.0374
      3 C         141.1137  141.4692  165.1089 C.ar    1  UNL1        0.0023
      4 C         140.8578  141.3569  166.5826 C.ar    1  UNL1        0.0183
      5 C         141.6457  142.1936  167.5465 C.ar    1  UNL1        0.0118
      6 C         141.3897  142.0813  169.0203 C.ar    1  UNL1        0.0685
      7 C         140.3459  141.1323  169.5300 C.ar    1  UNL1        0.0118
      8 C         139.5581  140.2956  168.5661 C.ar    1  UNL1        0.0199
      9 C         139.8140  140.4079  167.0924 C.ar    1  UNL1        0.0844
     10 N         139.0261  139.5712  166.1284 N.ar    1  UNL1       -0.2119
     11 C         139.2821  139.6835  164.6546 C.ar    1  UNL1        0.2211
     12 C         142.1775  142.9180  169.9843 C.1     1  UNL1        0.1004
     13 N         142.9654  143.7547  170.9482 N.1     1  UNL1       -0.1908
     14 O         138.4942  138.8468  163.6907 O.3     1  UNL1       -0.4563
     15 C         139.0081  137.5013  163.2716 C.3     1  UNL1        0.2542
     16 C         141.5758  139.8358  162.0111 C.ar    1  UNL1        0.0115
     17 C         142.8971  139.5663  162.6679 C.ar    1  UNL1       -0.0017
     18 C         143.8912  138.6573  162.0078 C.ar    1  UNL1       -0.0005
     19 C         143.5638  138.0178  160.6911 C.ar    1  UNL1       -0.0021
     20 C         142.2424  138.2874  160.0343 C.ar    1  UNL1        0.0053
     21 C         141.9150  137.6479  158.7175 C.3     1  UNL1        0.0334
     22 C         141.2484  139.1964  160.6943 C.ar    1  UNL1        0.1325
     23 F         139.9271  139.4659  160.0376 F       1  UNL1       -0.2048
     24 C         139.8438  141.7662  161.8575 C.3     1  UNL1        0.1160
     25 O         138.5555  141.0438  162.1191 O.3     1  UNL1       -0.3820
     26 H         137.8279  141.5108  161.6795 H       1  UNL1        0.2107
     27 C         143.0471  143.1574  159.9724 C.ar    1  UNL1        0.1070
     28 C         141.7588  142.4350  160.2341 C.ar    1  UNL1        0.0235
     29 C         141.1320  142.4887  161.5958 C.ar    1  UNL1        0.0064
     30 C         141.7935  143.2648  162.6958 C.ar    1  UNL1        0.0235
     31 C         143.0818  143.9872  162.4341 C.ar    1  UNL1        0.1070
     32 N         143.7086  143.9335  161.0724 N.ar    1  UNL1       -0.2330
     33 S         143.6739  143.1037  158.6107 S.3     1  UNL1       -0.0950
     34 C         144.2158  140.6426  157.9788 C.3     1  UNL1        0.0130
     35 C         144.6769  142.0359  158.2883 C.3     1  UNL1        0.0637
     36 S         143.7432  144.7634  163.5342 S.3     1  UNL1       -0.0950
     37 C         144.1598  144.0686  164.7966 C.3     1  UNL1        0.0637
     38 C         144.7261  142.6808  164.7371 C.3     1  UNL1        0.0130
     39 C         139.1057  142.7876  161.0438 C.3     1  UNL1        0.0491
     40 C         138.0601  142.3507  160.0611 C.3     1  UNL1        0.0750
     41 N         138.4063  142.2161  158.6078 N.3     1  UNL1       -0.2702
     42 C         139.1868  143.2963  157.9196 C.3     1  UNL1        0.0897
     43 C         137.9719  141.0012  157.8428 C.3     1  UNL1        0.0897
@<TRIPOS>BOND
     1    34    35    1
     2    35    33    1
     3    33    27    1
     4    27    28   ar
     5    28    29   ar
     6    29    24    1
     7    24    25    1
     8    24    39    1
     9    39    40    1
    10    40    41    1
    11    41    42    1
    12    41    43    1
    13    24     1    1
    14     1     2    1
    15     2     3   ar
    16     3     4   ar
    17     4     5   ar
    18     5     6   ar
    19     6    12    1
    20    12    13    3
    21     6     7   ar
    22     7     8   ar
    23     8     9   ar
    24     9    10   ar
    25    10    11   ar
    26    11    14    1
    27    14    15    1
    28     1    16    1
    29    16    17   ar
    30    17    18   ar
    31    18    19   ar
    32    19    20   ar
    33    20    21    1
    34    20    22   ar
    35    22    23    1
    36    29    30   ar
    37    30    31   ar
    38    31    36    1
    39    36    37    1
    40    37    38    1
    41    31    32   ar
    42    32    27   ar
    43    11     2   ar
    44    22    16   ar
    45     9     4   ar
    46    25    26    1
@<TRIPOS>MOLECULE
*****
 43 46 0 0 0
SMALL
GASTEIGER

@<TRIPOS>ATOM
      1 C         141.8984  141.8831  160.7566 C.3     1  UNL1        0.0798
      2 C         142.3731  141.1740  159.5229 C.ar    1  UNL1        0.0374
      3 C         142.2215  139.6862  159.4079 C.ar    1  UNL1        0.0023
      4 C         142.6962  138.9771  158.1743 C.ar    1  UNL1        0.0183
      5 C         142.5446  137.4892  158.0592 C.ar    1  UNL1        0.0118
      6 C         143.0193  136.7801  156.8255 C.ar    1  UNL1        0.0685
      7 C         143.6456  137.5589  155.7069 C.ar    1  UNL1        0.0118
      8 C         143.7972  139.0468  155.8220 C.ar    1  UNL1        0.0199
      9 C         143.3225  139.7559  157.0556 C.ar    1  UNL1        0.0844
     10 N         143.4741  141.2438  157.1707 N.ar    1  UNL1       -0.2119
     11 C         142.9994  141.9528  158.4044 C.ar    1  UNL1        0.2211
     12 C         142.8677  135.2922  156.7104 C.1     1  UNL1        0.1004
     13 N         142.7161  133.8044  156.5954 N.1     1  UNL1       -0.1908
     14 O         143.1510  143.4407  158.5194 O.3     1  UNL1       -0.4563
     15 C         142.4453  144.3436  157.5515 C.3     1  UNL1        0.2542
     16 C         142.4576  141.5107  162.0978 C.ar    1  UNL1        0.0115
     17 C         141.5521  140.9676  163.1632 C.ar    1  UNL1       -0.0017
     18 C         142.1112  140.5952  164.5044 C.ar    1  UNL1       -0.0005
     19 C         143.5758  140.7658  164.7801 C.ar    1  UNL1       -0.0021
     20 C         144.4812  141.3088  163.7145 C.ar    1  UNL1        0.0053
     21 C         145.9458  141.4794  163.9902 C.3     1  UNL1        0.0334
     22 C         143.9221  141.6813  162.3734 C.ar    1  UNL1        0.1325
     23 F         144.8276  142.2243  161.3079 F       1  UNL1       -0.2048
     24 C         140.8646  142.9646  160.6491 C.3     1  UNL1        0.1160
     25 O         141.8728  143.9743  161.1119 O.3     1  UNL1       -0.3820
     26 H         141.4598  144.8513  161.1461 H       1  UNL1        0.2107
     27 C         138.3268  139.9136  160.6794 C.ar    1  UNL1        0.1070
     28 C         139.3349  140.9233  161.1422 C.ar    1  UNL1        0.0235
     29 C         139.8565  141.9549  160.1864 C.ar    1  UNL1        0.0064
     30 C         139.3699  141.9768  158.7677 C.ar    1  UNL1        0.0235
     31 C         138.3618  140.9671  158.3049 C.ar    1  UNL1        0.1070
     32 N         137.8402  139.9355  159.2608 N.ar    1  UNL1       -0.2330
     33 S         137.8053  138.8820  161.6354 S.3     1  UNL1       -0.0950
     34 C         138.9520  138.0928  163.8291 C.3     1  UNL1        0.0130
     35 C         138.7590  137.9685  162.3468 C.3     1  UNL1        0.0637
     36 S         137.8752  140.9890  156.8861 S.3     1  UNL1       -0.0950
     37 C         138.4953  140.0804  155.8664 C.3     1  UNL1        0.0637
     38 C         139.6294  139.1792  156.2559 C.3     1  UNL1        0.0130
     39 C         139.8308  144.0461  160.5416 C.3     1  UNL1        0.0491
     40 C         139.6478  145.0230  161.6650 C.3     1  UNL1        0.0750
     41 N         139.2449  144.5352  163.0251 N.3     1  UNL1       -0.2702
     42 C         140.2319  144.5622  164.1543 C.3     1  UNL1        0.0897
     43 C         137.8551  144.0203  163.2559 C.3     1  UNL1        0.0897
@<TRIPOS>BOND
     1    34    35    1
     2    35    33    1
     3    33    27    1
     4    27    28   ar
     5    28    29   ar
     6    29    24    1
     7    24    25    1
     8    24    39    1
     9    39    40    1
    10    40    41    1
    11    41    42    1
    12    41    43    1
    13    24     1    1
    14     1     2    1
    15     2     3   ar
    16     3     4   ar
    17     4     5   ar
    18     5     6   ar
    19     6    12    1
    20    12    13    3
    21     6     7   ar
    22     7     8   ar
    23     8     9   ar
    24     9    10   ar
    25    10    11   ar
    26    11    14    1
    27    14    15    1
    28     1    16    1
    29    16    17   ar
    30    17    18   ar
    31    18    19   ar
    32    19    20   ar
    33    20    21    1
    34    20    22   ar
    35    22    23    1
    36    29    30   ar
    37    30    31   ar
    38    31    36    1
    39    36    37    1
    40    37    38    1
    41    31    32   ar
    42    32    27   ar
    43    11     2   ar
    44    22    16   ar
    45     9     4   ar
    46    25    26    1
