@<TRIPOS>MOLECULE
*****
 33 36 0 0 0
SMALL
GASTEIGER

@<TRIPOS>ATOM
      1 O         137.0546  141.5116  162.5155 O.3     1  UNL1       -0.4543
      2 C         137.8915  142.3614  163.4252 C.ar    1  UNL1        0.2311
      3 N         138.0465  143.8277  163.1496 N.ar    1  UNL1       -0.1892
      4 C         138.8834  144.6774  164.0592 C.ar    1  UNL1        0.2029
      5 N         139.5653  144.0609  165.2445 N.ar    1  UNL1       -0.2046
      6 C         139.4103  142.5946  165.5201 C.ar    1  UNL1        0.1715
      7 C         138.5734  141.7449  164.6104 C.ar    1  UNL1        0.1098
      8 C         138.6041  140.3386  165.1315 C.ar    1  UNL1        0.1283
      9 N         139.4600  140.3192  166.3632 N.ar    1  UNL1       -0.1619
     10 N         139.9583  141.7135  166.6033 N.ar    1  UNL1       -0.2111
     11 C         140.8482  142.1501  167.7291 C.ar    1  UNL1        0.0949
     12 C         140.2860  142.9622  168.8580 C.ar    1  UNL1        0.0201
     13 C         141.1760  143.3988  169.9837 C.ar    1  UNL1        0.0016
     14 C         142.6282  143.0233  169.9806 C.ar    1  UNL1        0.0010
     15 C         143.1904  142.2112  168.8517 C.ar    1  UNL1        0.0129
     16 C         142.3005  141.7746  167.7260 C.ar    1  UNL1        0.0753
     17 CL        142.8628  140.9626  166.5971 Cl      1  UNL1       -0.0807
     18 C         137.7106  140.6717  161.4599 C.3     1  UNL1        0.2455
     19 C         138.6080  141.3119  160.4425 C.2     1  UNL1        0.2675
     20 O         139.6398  140.4893  159.7294 O.2     1  UNL1       -0.2708
     21 N         138.4735  142.7745  160.1384 N.am    1  UNL1       -0.2664
     22 H         137.7962  143.3144  160.6065 H       1  UNL1        0.1564
     23 C         139.3709  143.4147  159.1211 C.ar    1  UNL1        0.1342
     24 C         139.0909  143.2393  157.6579 C.ar    1  UNL1        0.0342
     25 C         139.9882  143.8794  156.6407 C.ar    1  UNL1        0.0001
     26 C         141.1656  144.6950  157.0865 C.ar    1  UNL1       -0.0026
     27 C         142.0630  145.3351  156.0692 C.3     1  UNL1        0.0327
     28 C         141.4456  144.8703  158.5497 C.ar    1  UNL1        0.0960
     29 N         140.5482  144.2301  159.5670 N.ar    1  UNL1       -0.2293
     30 C         137.4691  139.1918  161.4216 C.3     1  UNL1        0.0852
     31 C         138.3718  138.2648  162.1803 C.3     1  UNL1        0.1465
     32 C         140.9534  138.0318  162.0027 C.3     1  UNL1        0.1741
     33 O         139.5805  137.6804  161.5111 O.3     1  UNL1       -0.3510
@<TRIPOS>BOND
     1    32    33    1
     2    33    31    1
     3    31    30    1
     4    18    30    1
     5    18     1    1
     6     1     2    1
     7     2     3   ar
     8     3     4   ar
     9     4     5   ar
    10     5     6   ar
    11     6     7   ar
    12     7     8   ar
    13     8     9   ar
    14     9    10   ar
    15    10    11    1
    16    11    12   ar
    17    12    13   ar
    18    13    14   ar
    19    14    15   ar
    20    15    16   ar
    21    16    17    1
    22    18    19    1
    23    19    20    2
    24    19    21   am
    25    21    23    1
    26    23    24   ar
    27    24    25   ar
    28    25    26   ar
    29    26    27    1
    30    26    28   ar
    31    28    29   ar
    32     7     2   ar
    33    16    11   ar
    34    29    23   ar
    35    10     6   ar
    36    21    22    1
@<TRIPOS>MOLECULE
*****
 33 36 0 0 0
SMALL
GASTEIGER

@<TRIPOS>ATOM
      1 O         137.3027  141.2401  162.5937 O.3     1  UNL1       -0.4543
      2 C         138.0499  142.1539  163.5194 C.ar    1  UNL1        0.2311
      3 N         138.1072  143.6257  163.2356 N.ar    1  UNL1       -0.1892
      4 C         138.8543  144.5394  164.1612 C.ar    1  UNL1        0.2029
      5 N         139.5442  143.9814  165.3707 N.ar    1  UNL1       -0.2046
      6 C         139.4868  142.5096  165.6544 C.ar    1  UNL1        0.1715
      7 C         138.7397  141.5959  164.7288 C.ar    1  UNL1        0.1098
      8 C         138.8561  140.1989  165.2627 C.ar    1  UNL1        0.1283
      9 N         139.6752  140.2493  166.5183 N.ar    1  UNL1       -0.1619
     10 N         140.0650  141.6774  166.7604 N.ar    1  UNL1       -0.2111
     11 C         140.8885  142.1843  167.9071 C.ar    1  UNL1        0.0949
     12 C         140.2667  143.0761  168.9405 C.ar    1  UNL1        0.0201
     13 C         141.0901  143.5830  170.0872 C.ar    1  UNL1        0.0016
     14 C         142.5354  143.1980  170.2006 C.ar    1  UNL1        0.0010
     15 C         143.1572  142.3062  169.1672 C.ar    1  UNL1        0.0129
     16 C         142.3338  141.7993  168.0205 C.ar    1  UNL1        0.0753
     17 CL        142.9557  140.9074  166.9871 Cl      1  UNL1       -0.0807
     18 C         138.0516  140.2532  161.7481 C.3     1  UNL1        0.2455
     19 C         139.1826  140.7166  160.8785 C.2     1  UNL1        0.2675
     20 O         138.8971  141.3225  159.5364 O.2     1  UNL1       -0.2708
     21 N         140.5991  140.5741  161.3511 N.am    1  UNL1       -0.2664
     22 H         140.7864  140.1765  162.2320 H       1  UNL1        0.1564
     23 C         141.7301  141.0375  160.4816 C.ar    1  UNL1        0.1342
     24 C         142.2006  142.4598  160.5578 C.ar    1  UNL1        0.0342
     25 C         143.3316  142.9232  159.6883 C.ar    1  UNL1        0.0001
     26 C         143.9921  141.9643  158.7425 C.ar    1  UNL1       -0.0026
     27 C         145.1230  142.4277  157.8730 C.3     1  UNL1        0.0327
     28 C         143.5215  140.5421  158.6663 C.ar    1  UNL1        0.0960
     29 N         142.3904  140.0787  159.5359 N.ar    1  UNL1       -0.2293
     30 C         137.6696  138.8029  161.7721 C.3     1  UNL1        0.0852
     31 C         138.5059  137.8195  162.5361 C.3     1  UNL1        0.1465
     32 C         140.9986  137.3553  163.1028 C.3     1  UNL1        0.1741
     33 O         139.9055  137.5180  162.0886 O.3     1  UNL1       -0.3510
@<TRIPOS>BOND
     1    32    33    1
     2    33    31    1
     3    31    30    1
     4    18    30    1
     5    18     1    1
     6     1     2    1
     7     2     3   ar
     8     3     4   ar
     9     4     5   ar
    10     5     6   ar
    11     6     7   ar
    12     7     8   ar
    13     8     9   ar
    14     9    10   ar
    15    10    11    1
    16    11    12   ar
    17    12    13   ar
    18    13    14   ar
    19    14    15   ar
    20    15    16   ar
    21    16    17    1
    22    18    19    1
    23    19    20    2
    24    19    21   am
    25    21    23    1
    26    23    24   ar
    27    24    25   ar
    28    25    26   ar
    29    26    27    1
    30    26    28   ar
    31    28    29   ar
    32     7     2   ar
    33    16    11   ar
    34    29    23   ar
    35    10     6   ar
    36    21    22    1
@<TRIPOS>MOLECULE
*****
 33 36 0 0 0
SMALL
GASTEIGER

@<TRIPOS>ATOM
      1 O         140.8854  145.3812  161.2593 O.3     1  UNL1       -0.4543
      2 C         140.0556  144.7570  162.3418 C.ar    1  UNL1        0.2311
      3 N         138.5586  144.8123  162.2654 N.ar    1  UNL1       -0.1892
      4 C         137.7289  144.1881  163.3479 C.ar    1  UNL1        0.2029
      5 N         138.3961  143.5085  164.5067 N.ar    1  UNL1       -0.2046
      6 C         139.8931  143.4531  164.5831 C.ar    1  UNL1        0.1715
      7 C         140.7229  144.0774  163.5006 C.ar    1  UNL1        0.1098
      8 C         142.1678  143.8667  163.8443 C.ar    1  UNL1        0.1283
      9 N         142.2309  143.1123  165.1392 N.ar    1  UNL1       -0.1619
     10 N         140.8251  142.8567  165.5958 N.ar    1  UNL1       -0.2111
     11 C         140.4221  142.1318  166.8457 C.ar    1  UNL1        0.0949
     12 C         140.5792  142.7958  168.1815 C.ar    1  UNL1        0.0201
     13 C         140.1762  142.0709  169.4313 C.ar    1  UNL1        0.0016
     14 C         139.6160  140.6821  169.3454 C.ar    1  UNL1        0.0010
     15 C         139.4588  140.0182  168.0096 C.ar    1  UNL1        0.0129
     16 C         139.8619  140.7430  166.7597 C.ar    1  UNL1        0.0753
     17 CL        139.7047  140.0790  165.4239 Cl      1  UNL1       -0.0807
     18 C         141.0601  144.6758  159.9471 C.3     1  UNL1        0.2455
     19 C         141.1126  145.4649  158.6724 C.2     1  UNL1        0.2675
     20 O         142.3776  146.1669  158.2765 O.2     1  UNL1       -0.2708
     21 N         139.8999  145.5521  157.7939 N.am    1  UNL1       -0.2664
     22 H         139.0696  145.0913  158.0538 H       1  UNL1        0.1564
     23 C         139.9523  146.3412  156.5193 C.ar    1  UNL1        0.1342
     24 C         140.7741  145.8483  155.3653 C.ar    1  UNL1        0.0342
     25 C         140.8265  146.6374  154.0907 C.ar    1  UNL1        0.0001
     26 C         140.0571  147.9194  153.9702 C.ar    1  UNL1       -0.0026
     27 C         140.1095  148.7085  152.6956 C.3     1  UNL1        0.0327
     28 C         139.2353  148.4123  155.1242 C.ar    1  UNL1        0.0960
     29 N         139.1830  147.6231  156.3988 N.ar    1  UNL1       -0.2293
     30 C         141.1823  143.1813  159.9094 C.3     1  UNL1        0.0852
     31 C         142.5307  142.5426  159.7553 C.3     1  UNL1        0.1465
     32 C         144.6531  142.7145  161.2440 C.3     1  UNL1        0.1741
     33 O         143.7644  143.2839  160.1782 O.3     1  UNL1       -0.3510
@<TRIPOS>BOND
     1    32    33    1
     2    33    31    1
     3    31    30    1
     4    18    30    1
     5    18     1    1
     6     1     2    1
     7     2     3   ar
     8     3     4   ar
     9     4     5   ar
    10     5     6   ar
    11     6     7   ar
    12     7     8   ar
    13     8     9   ar
    14     9    10   ar
    15    10    11    1
    16    11    12   ar
    17    12    13   ar
    18    13    14   ar
    19    14    15   ar
    20    15    16   ar
    21    16    17    1
    22    18    19    1
    23    19    20    2
    24    19    21   am
    25    21    23    1
    26    23    24   ar
    27    24    25   ar
    28    25    26   ar
    29    26    27    1
    30    26    28   ar
    31    28    29   ar
    32     7     2   ar
    33    16    11   ar
    34    29    23   ar
    35    10     6   ar
    36    21    22    1
@<TRIPOS>MOLECULE
*****
 33 36 0 0 0
SMALL
GASTEIGER

@<TRIPOS>ATOM
      1 O         143.5058  144.4554  163.0501 O.3     1  UNL1       -0.4543
      2 C         142.2681  144.1739  163.8495 C.ar    1  UNL1        0.2311
      3 N         140.9652  144.8089  163.4633 N.ar    1  UNL1       -0.1892
      4 C         139.7276  144.5274  164.2627 C.ar    1  UNL1        0.2029
      5 N         139.7930  143.6108  165.4483 N.ar    1  UNL1       -0.2046
      6 C         141.0958  142.9758  165.8346 C.ar    1  UNL1        0.1715
      7 C         142.3334  143.2574  165.0352 C.ar    1  UNL1        0.1098
      8 C         143.4672  142.4925  165.6512 C.ar    1  UNL1        0.1283
      9 N         142.9303  141.7382  166.8314 N.ar    1  UNL1       -0.1619
     10 N         141.4647  142.0369  166.9447 N.ar    1  UNL1       -0.2111
     11 C         140.5318  141.4924  167.9854 C.ar    1  UNL1        0.0949
     12 C         139.7525  140.2401  167.7126 C.ar    1  UNL1        0.0201
     13 C         138.8195  139.6956  168.7533 C.ar    1  UNL1        0.0016
     14 C         138.6659  140.4033  170.0669 C.ar    1  UNL1        0.0010
     15 C         139.4452  141.6555  170.3397 C.ar    1  UNL1        0.0129
     16 C         140.3781  142.2001  169.2990 C.ar    1  UNL1        0.0753
     17 CL        141.1574  143.4524  169.5719 Cl      1  UNL1       -0.0807
     18 C         143.9006  143.5380  161.9310 C.3     1  UNL1        0.2455
     19 C         143.2676  143.6883  160.5793 C.2     1  UNL1        0.2675
     20 O         143.7051  142.8104  159.4445 O.2     1  UNL1       -0.2708
     21 N         142.1971  144.7164  160.3626 N.am    1  UNL1       -0.2664
     22 H         141.9100  145.2926  161.1074 H       1  UNL1        0.1564
     23 C         141.5642  144.8667  159.0110 C.ar    1  UNL1        0.1342
     24 C         140.2980  144.1295  158.6896 C.ar    1  UNL1        0.0342
     25 C         139.6651  144.2798  157.3381 C.ar    1  UNL1        0.0001
     26 C         140.2983  145.1673  156.3078 C.ar    1  UNL1       -0.0026
     27 C         139.6654  145.3176  154.9562 C.3     1  UNL1        0.0327
     28 C         141.5645  145.9045  156.6292 C.ar    1  UNL1        0.0960
     29 N         142.1975  145.7542  157.9808 N.ar    1  UNL1       -0.2293
     30 C         144.9282  142.4704  162.1634 C.3     1  UNL1        0.0852
     31 C         144.4996  141.0458  162.3547 C.3     1  UNL1        0.1465
     32 C         144.3807  139.2787  164.2557 C.3     1  UNL1        0.1741
     33 O         145.1866  140.1864  163.3744 O.3     1  UNL1       -0.3510
@<TRIPOS>BOND
     1    32    33    1
     2    33    31    1
     3    31    30    1
     4    18    30    1
     5    18     1    1
     6     1     2    1
     7     2     3   ar
     8     3     4   ar
     9     4     5   ar
    10     5     6   ar
    11     6     7   ar
    12     7     8   ar
    13     8     9   ar
    14     9    10   ar
    15    10    11    1
    16    11    12   ar
    17    12    13   ar
    18    13    14   ar
    19    14    15   ar
    20    15    16   ar
    21    16    17    1
    22    18    19    1
    23    19    20    2
    24    19    21   am
    25    21    23    1
    26    23    24   ar
    27    24    25   ar
    28    25    26   ar
    29    26    27    1
    30    26    28   ar
    31    28    29   ar
    32     7     2   ar
    33    16    11   ar
    34    29    23   ar
    35    10     6   ar
    36    21    22    1
@<TRIPOS>MOLECULE
*****
 33 36 0 0 0
SMALL
GASTEIGER

@<TRIPOS>ATOM
      1 O         137.5176  140.7936  163.5787 O.3     1  UNL1       -0.4543
      2 C         138.3528  139.7426  162.9094 C.ar    1  UNL1        0.2311
      3 N         138.8371  138.5584  163.6924 N.ar    1  UNL1       -0.1892
      4 C         139.6723  137.5075  163.0231 C.ar    1  UNL1        0.2029
      5 N         140.0232  137.6408  161.5709 N.ar    1  UNL1       -0.2046
      6 C         139.5389  138.8250  160.7879 C.ar    1  UNL1        0.1715
      7 C         138.7037  139.8759  161.4571 C.ar    1  UNL1        0.1098
      8 C         138.3724  140.9242  160.4366 C.ar    1  UNL1        0.1283
      9 N         139.0028  140.5210  159.1366 N.ar    1  UNL1       -0.1619
     10 N         139.7238  139.2237  159.3537 N.ar    1  UNL1       -0.2111
     11 C         140.4943  138.4592  158.3184 C.ar    1  UNL1        0.0949
     12 C         139.7675  137.7486  157.2154 C.ar    1  UNL1        0.0201
     13 C         140.5380  136.9841  156.1802 C.ar    1  UNL1        0.0016
     14 C         142.0355  136.9303  156.2478 C.ar    1  UNL1        0.0010
     15 C         142.7624  137.6409  157.3508 C.ar    1  UNL1        0.0129
     16 C         141.9918  138.4054  158.3861 C.ar    1  UNL1        0.0753
     17 CL        142.7188  139.1160  159.4890 Cl      1  UNL1       -0.0807
     18 C         138.1768  141.9724  164.2312 C.3     1  UNL1        0.2455
     19 C         139.1157  141.7644  165.3825 C.2     1  UNL1        0.2675
     20 O         139.9939  142.8884  165.8466 O.2     1  UNL1       -0.2708
     21 N         139.1764  140.4324  166.0695 N.am    1  UNL1       -0.2664
     22 H         138.6000  139.6947  165.7649 H       1  UNL1        0.1564
     23 C         140.1152  140.2244  167.2207 C.ar    1  UNL1        0.1342
     24 C         139.5899  140.2210  168.6257 C.ar    1  UNL1        0.0342
     25 C         140.5287  140.0130  169.7769 C.ar    1  UNL1        0.0001
     26 C         141.9929  139.8083  169.5231 C.ar    1  UNL1       -0.0026
     27 C         142.9318  139.6003  170.6743 C.3     1  UNL1        0.0327
     28 C         142.5182  139.8117  168.1181 C.ar    1  UNL1        0.0960
     29 N         141.5793  140.0198  166.9669 N.ar    1  UNL1       -0.2293
     30 C         137.8973  143.3592  163.7325 C.3     1  UNL1        0.0852
     31 C         138.7819  143.9733  162.6884 C.3     1  UNL1        0.1465
     32 C         139.6440  146.2193  161.7073 C.3     1  UNL1        0.1741
     33 O         138.5136  145.3673  162.2035 O.3     1  UNL1       -0.3510
@<TRIPOS>BOND
     1    32    33    1
     2    33    31    1
     3    31    30    1
     4    18    30    1
     5    18     1    1
     6     1     2    1
     7     2     3   ar
     8     3     4   ar
     9     4     5   ar
    10     5     6   ar
    11     6     7   ar
    12     7     8   ar
    13     8     9   ar
    14     9    10   ar
    15    10    11    1
    16    11    12   ar
    17    12    13   ar
    18    13    14   ar
    19    14    15   ar
    20    15    16   ar
    21    16    17    1
    22    18    19    1
    23    19    20    2
    24    19    21   am
    25    21    23    1
    26    23    24   ar
    27    24    25   ar
    28    25    26   ar
    29    26    27    1
    30    26    28   ar
    31    28    29   ar
    32     7     2   ar
    33    16    11   ar
    34    29    23   ar
    35    10     6   ar
    36    21    22    1
@<TRIPOS>MOLECULE
*****
 33 36 0 0 0
SMALL
GASTEIGER

@<TRIPOS>ATOM
      1 O         137.1106  141.3485  162.4836 O.3     1  UNL1       -0.4543
      2 C         137.9814  142.2064  163.3529 C.ar    1  UNL1        0.2311
      3 N         138.2326  143.6381  162.9826 N.ar    1  UNL1       -0.1892
      4 C         139.1034  144.4959  163.8519 C.ar    1  UNL1        0.2029
      5 N         139.7230  143.9221  165.0916 N.ar    1  UNL1       -0.2046
      6 C         139.4719  142.4904  165.4619 C.ar    1  UNL1        0.1715
      7 C         138.6011  141.6326  164.5926 C.ar    1  UNL1        0.1098
      8 C         138.5343  140.2662  165.2080 C.ar    1  UNL1        0.1283
      9 N         139.3639  140.2796  166.4576 N.ar    1  UNL1       -0.1619
     10 N         139.9433  141.6543  166.6145 N.ar    1  UNL1       -0.2111
     11 C         140.8373  142.1123  167.7285 C.ar    1  UNL1        0.0949
     12 C         140.2739  142.9248  168.8565 C.ar    1  UNL1        0.0201
     13 C         141.1678  143.3829  169.9705 C.ar    1  UNL1        0.0016
     14 C         142.6253  143.0285  169.9565 C.ar    1  UNL1        0.0010
     15 C         143.1887  142.2160  168.8286 C.ar    1  UNL1        0.0129
     16 C         142.2948  141.7579  167.7146 C.ar    1  UNL1        0.0753
     17 CL        142.8583  140.9454  166.5866 Cl      1  UNL1       -0.0807
     18 C         137.7323  140.4202  161.4827 C.3     1  UNL1        0.2455
     19 C         138.0763  140.9185  160.1103 C.2     1  UNL1        0.2675
     20 O         138.9492  142.1275  159.9483 O.2     1  UNL1       -0.2708
     21 N         137.5473  140.2076  158.9000 N.am    1  UNL1       -0.2664
     22 H         136.9744  139.4141  159.0063 H       1  UNL1        0.1564
     23 C         137.8912  140.7058  157.5276 C.ar    1  UNL1        0.1342
     24 C         138.9794  140.0398  156.7387 C.ar    1  UNL1        0.0342
     25 C         139.3233  140.5380  155.3663 C.ar    1  UNL1        0.0001
     26 C         138.5790  141.7023  154.7827 C.ar    1  UNL1       -0.0026
     27 C         138.9230  142.2005  153.4104 C.3     1  UNL1        0.0327
     28 C         137.4909  142.3684  155.5716 C.ar    1  UNL1        0.0960
     29 N         137.1470  141.8701  156.9441 N.ar    1  UNL1       -0.2293
     30 C         138.0101  138.9938  161.8542 C.3     1  UNL1        0.0852
     31 C         139.4008  138.4446  161.7338 C.3     1  UNL1        0.1465
     32 C         141.1522  137.3080  163.2800 C.3     1  UNL1        0.1741
     33 O         139.8244  137.2826  162.5827 O.3     1  UNL1       -0.3510
@<TRIPOS>BOND
     1    32    33    1
     2    33    31    1
     3    31    30    1
     4    18    30    1
     5    18     1    1
     6     1     2    1
     7     2     3   ar
     8     3     4   ar
     9     4     5   ar
    10     5     6   ar
    11     6     7   ar
    12     7     8   ar
    13     8     9   ar
    14     9    10   ar
    15    10    11    1
    16    11    12   ar
    17    12    13   ar
    18    13    14   ar
    19    14    15   ar
    20    15    16   ar
    21    16    17    1
    22    18    19    1
    23    19    20    2
    24    19    21   am
    25    21    23    1
    26    23    24   ar
    27    24    25   ar
    28    25    26   ar
    29    26    27    1
    30    26    28   ar
    31    28    29   ar
    32     7     2   ar
    33    16    11   ar
    34    29    23   ar
    35    10     6   ar
    36    21    22    1
@<TRIPOS>MOLECULE
*****
 33 36 0 0 0
SMALL
GASTEIGER

@<TRIPOS>ATOM
      1 O         141.1548  137.2999  163.1680 O.3     1  UNL1       -0.4543
      2 C         140.4321  137.9207  164.3267 C.ar    1  UNL1        0.2311
      3 N         138.9498  137.7407  164.4695 N.ar    1  UNL1       -0.1892
      4 C         138.2272  138.3615  165.6282 C.ar    1  UNL1        0.2029
      5 N         138.9868  139.1622  166.6439 N.ar    1  UNL1       -0.2046
      6 C         140.4691  139.3421  166.5011 C.ar    1  UNL1        0.1715
      7 C         141.1917  138.7214  165.3425 C.ar    1  UNL1        0.1098
      8 C         142.6461  139.0680  165.4638 C.ar    1  UNL1        0.1283
      9 N         142.8223  139.9030  166.6973 N.ar    1  UNL1       -0.1619
     10 N         141.4768  140.0724  167.3385 N.ar    1  UNL1       -0.2111
     11 C         141.1895  140.8377  168.5961 C.ar    1  UNL1        0.0949
     12 C         141.4103  140.1940  169.9328 C.ar    1  UNL1        0.0201
     13 C         141.1230  140.9593  171.1905 C.ar    1  UNL1        0.0016
     14 C         140.6149  142.3684  171.1115 C.ar    1  UNL1        0.0010
     15 C         140.3941  143.0121  169.7747 C.ar    1  UNL1        0.0129
     16 C         140.6814  142.2468  168.5171 C.ar    1  UNL1        0.0753
     17 CL        140.4606  142.8906  167.1804 Cl      1  UNL1       -0.0807
     18 C         141.6151  138.1560  162.0256 C.3     1  UNL1        0.2455
     19 C         141.0771  139.5472  161.8666 C.2     1  UNL1        0.2675
     20 O         139.7297  139.7637  161.2442 O.2     1  UNL1       -0.2708
     21 N         141.8867  140.7219  162.3300 N.am    1  UNL1       -0.2664
     22 H         142.7711  140.5798  162.7385 H       1  UNL1        0.1564
     23 C         141.3488  142.1130  162.1710 C.ar    1  UNL1        0.1342
     24 C         141.7525  142.9426  160.9883 C.ar    1  UNL1        0.0342
     25 C         141.2146  144.3338  160.8293 C.ar    1  UNL1        0.0001
     26 C         140.2729  144.8954  161.8531 C.ar    1  UNL1       -0.0026
     27 C         139.7350  146.2865  161.6941 C.3     1  UNL1        0.0327
     28 C         139.8692  144.0658  163.0357 C.ar    1  UNL1        0.0960
     29 N         140.4072  142.6745  163.1947 N.ar    1  UNL1       -0.2293
     30 C         142.6133  137.6209  161.0422 C.3     1  UNL1        0.0852
     31 C         144.0004  138.1902  160.9964 C.3     1  UNL1        0.1465
     32 C         143.6131  139.9878  159.1611 C.3     1  UNL1        0.1741
     33 O         144.2255  139.5754  160.4668 O.3     1  UNL1       -0.3510
@<TRIPOS>BOND
     1    32    33    1
     2    33    31    1
     3    31    30    1
     4    18    30    1
     5    18     1    1
     6     1     2    1
     7     2     3   ar
     8     3     4   ar
     9     4     5   ar
    10     5     6   ar
    11     6     7   ar
    12     7     8   ar
    13     8     9   ar
    14     9    10   ar
    15    10    11    1
    16    11    12   ar
    17    12    13   ar
    18    13    14   ar
    19    14    15   ar
    20    15    16   ar
    21    16    17    1
    22    18    19    1
    23    19    20    2
    24    19    21   am
    25    21    23    1
    26    23    24   ar
    27    24    25   ar
    28    25    26   ar
    29    26    27    1
    30    26    28   ar
    31    28    29   ar
    32     7     2   ar
    33    16    11   ar
    34    29    23   ar
    35    10     6   ar
    36    21    22    1
@<TRIPOS>MOLECULE
*****
 33 36 0 0 0
SMALL
GASTEIGER

@<TRIPOS>ATOM
      1 O         141.9268  138.7443  157.2559 O.3     1  UNL1       -0.4543
      2 C         141.9957  138.6116  158.7484 C.ar    1  UNL1        0.2311
      3 N         143.3009  138.2881  159.4131 N.ar    1  UNL1       -0.1892
      4 C         143.3698  138.1554  160.9056 C.ar    1  UNL1        0.2029
      5 N         142.1335  138.3462  161.7334 N.ar    1  UNL1       -0.2046
      6 C         140.8283  138.6696  161.0687 C.ar    1  UNL1        0.1715
      7 C         140.7594  138.8023  159.5762 C.ar    1  UNL1        0.1098
      8 C         139.3426  139.1257  159.2045 C.ar    1  UNL1        0.1283
      9 N         138.5359  139.1928  160.4673 N.ar    1  UNL1       -0.1619
     10 N         139.4541  138.9110  161.6195 N.ar    1  UNL1       -0.2111
     11 C         139.0663  138.8765  163.0680 C.ar    1  UNL1        0.0949
     12 C         139.1381  137.5884  163.8333 C.ar    1  UNL1        0.0201
     13 C         138.7502  137.5539  165.2818 C.ar    1  UNL1        0.0016
     14 C         138.2905  138.8076  165.9652 C.ar    1  UNL1        0.0010
     15 C         138.2187  140.0957  165.2000 C.ar    1  UNL1        0.0129
     16 C         138.6066  140.1302  163.7514 C.ar    1  UNL1        0.0753
     17 CL        138.5347  141.4183  162.9862 Cl      1  UNL1       -0.0807
     18 C         141.4263  137.6011  156.4236 C.3     1  UNL1        0.2455
     19 C         142.2296  136.3382  156.3235 C.2     1  UNL1        0.2675
     20 O         143.7151  136.3761  156.5275 O.2     1  UNL1       -0.2708
     21 N         141.5473  135.0375  156.0195 N.am    1  UNL1       -0.2664
     22 H         140.5722  135.0126  155.8856 H       1  UNL1        0.1564
     23 C         142.3505  133.7746  155.9194 C.ar    1  UNL1        0.1342
     24 C         142.6565  133.1850  154.5745 C.ar    1  UNL1        0.0342
     25 C         143.4597  131.9222  154.4745 C.ar    1  UNL1        0.0001
     26 C         143.9569  131.2489  155.7193 C.ar    1  UNL1       -0.0026
     27 C         144.7601  129.9861  155.6193 C.3     1  UNL1        0.0327
     28 C         143.6508  131.8385  157.0642 C.ar    1  UNL1        0.0960
     29 N         142.8476  133.1014  157.1642 N.ar    1  UNL1       -0.2293
     30 C         140.1227  137.7207  155.6914 C.3     1  UNL1        0.0852
     31 C         140.0993  137.6921  154.1919 C.3     1  UNL1        0.1465
     32 C         141.5598  136.2608  152.5892 C.3     1  UNL1        0.1741
     33 O         140.3487  136.4053  153.4623 O.3     1  UNL1       -0.3510
@<TRIPOS>BOND
     1    32    33    1
     2    33    31    1
     3    31    30    1
     4    18    30    1
     5    18     1    1
     6     1     2    1
     7     2     3   ar
     8     3     4   ar
     9     4     5   ar
    10     5     6   ar
    11     6     7   ar
    12     7     8   ar
    13     8     9   ar
    14     9    10   ar
    15    10    11    1
    16    11    12   ar
    17    12    13   ar
    18    13    14   ar
    19    14    15   ar
    20    15    16   ar
    21    16    17    1
    22    18    19    1
    23    19    20    2
    24    19    21   am
    25    21    23    1
    26    23    24   ar
    27    24    25   ar
    28    25    26   ar
    29    26    27    1
    30    26    28   ar
    31    28    29   ar
    32     7     2   ar
    33    16    11   ar
    34    29    23   ar
    35    10     6   ar
    36    21    22    1
@<TRIPOS>MOLECULE
*****
 33 36 0 0 0
SMALL
GASTEIGER

@<TRIPOS>ATOM
      1 O         141.3154  137.3429  162.0662 O.3     1  UNL1       -0.4543
      2 C         140.5425  138.2675  162.9594 C.ar    1  UNL1        0.2311
      3 N         139.2335  138.8361  162.4977 N.ar    1  UNL1       -0.1892
      4 C         138.4607  139.7606  163.3909 C.ar    1  UNL1        0.2029
      5 N         138.9968  140.1166  164.7458 N.ar    1  UNL1       -0.2046
      6 C         140.3058  139.5480  165.2076 C.ar    1  UNL1        0.1715
      7 C         141.0786  138.6234  164.3144 C.ar    1  UNL1        0.1098
      8 C         142.3307  138.2209  165.0358 C.ar    1  UNL1        0.1283
      9 N         142.3316  138.8968  166.3749 N.ar    1  UNL1       -0.1619
     10 N         141.0801  139.7169  166.4811 N.ar    1  UNL1       -0.2111
     11 C         140.6743  140.5583  167.6547 C.ar    1  UNL1        0.0949
     12 C         139.7014  140.0211  168.6620 C.ar    1  UNL1        0.0201
     13 C         139.2956  140.8625  169.8356 C.ar    1  UNL1        0.0016
     14 C         139.8626  142.2412  170.0019 C.ar    1  UNL1        0.0010
     15 C         140.8355  142.7784  168.9945 C.ar    1  UNL1        0.0129
     16 C         141.2413  141.9370  167.8209 C.ar    1  UNL1        0.0753
     17 CL        142.2142  142.4743  166.8136 Cl      1  UNL1       -0.0807
     18 C         142.4077  137.8838  161.1920 C.3     1  UNL1        0.2455
     19 C         142.1808  138.0383  159.7173 C.2     1  UNL1        0.2675
     20 O         141.1021  138.9523  159.2161 O.2     1  UNL1       -0.2708
     21 N         143.0326  137.2789  158.7437 N.am    1  UNL1       -0.2664
     22 H         143.7405  136.6791  159.0726 H       1  UNL1        0.1564
     23 C         142.8057  137.4335  157.2691 C.ar    1  UNL1        0.1342
     24 C         141.6850  136.6933  156.6011 C.ar    1  UNL1        0.0342
     25 C         141.4581  136.8478  155.1264 C.ar    1  UNL1        0.0001
     26 C         142.3519  137.7425  154.3197 C.ar    1  UNL1       -0.0026
     27 C         142.1251  137.8971  152.8451 C.3     1  UNL1        0.0327
     28 C         143.4726  138.4827  154.9878 C.ar    1  UNL1        0.0960
     29 N         143.6995  138.3281  156.4625 N.ar    1  UNL1       -0.2293
     30 C         143.7268  138.2701  161.7923 C.3     1  UNL1        0.0852
     31 C         144.1695  139.7032  161.7714 C.3     1  UNL1        0.1465
     32 C         145.2726  140.7183  163.8933 C.3     1  UNL1        0.1741
     33 O         144.0707  140.5369  163.0144 O.3     1  UNL1       -0.3510
@<TRIPOS>BOND
     1    32    33    1
     2    33    31    1
     3    31    30    1
     4    18    30    1
     5    18     1    1
     6     1     2    1
     7     2     3   ar
     8     3     4   ar
     9     4     5   ar
    10     5     6   ar
    11     6     7   ar
    12     7     8   ar
    13     8     9   ar
    14     9    10   ar
    15    10    11    1
    16    11    12   ar
    17    12    13   ar
    18    13    14   ar
    19    14    15   ar
    20    15    16   ar
    21    16    17    1
    22    18    19    1
    23    19    20    2
    24    19    21   am
    25    21    23    1
    26    23    24   ar
    27    24    25   ar
    28    25    26   ar
    29    26    27    1
    30    26    28   ar
    31    28    29   ar
    32     7     2   ar
    33    16    11   ar
    34    29    23   ar
    35    10     6   ar
    36    21    22    1
