@<TRIPOS>MOLECULE
*****
 27 30 0 0 0
SMALL
GASTEIGER

@<TRIPOS>ATOM
      1 C         141.4347  139.6863  162.6113 C.ar    1  UNL1        0.1547
      2 C         140.8700  139.8207  163.9944 C.ar    1  UNL1        0.0400
      3 C         139.7893  138.8890  164.4571 C.ar    1  UNL1        0.0241
      4 C         139.2732  137.8231  163.5366 C.ar    1  UNL1        0.0033
      5 C         139.8378  137.6887  162.1535 C.ar    1  UNL1        0.0207
      6 C         140.9186  138.6204  161.6908 C.ar    1  UNL1        0.0994
      7 N         141.4832  138.4860  160.3076 N.ar    1  UNL1       -0.2839
      8 C         142.7878  137.8396  159.9468 C.ar    1  UNL1        0.1826
      9 N         142.9533  137.9286  158.4586 N.ar    1  UNL1       -0.2280
     10 C         141.7508  138.6299  157.8996 C.ar    1  UNL1        0.0786
     11 C         141.5009  138.9335  156.4521 C.3     1  UNL1        0.0538
     12 C         140.8423  138.9744  159.0424 C.ar    1  UNL1        0.0963
     13 C         139.2247  139.0234  165.8403 C.ar    1  UNL1        0.1233
     14 C         139.8271  139.8109  166.9659 C.ar    1  UNL1        0.1179
     15 N         138.9332  139.6680  168.1619 N.ar    1  UNL1       -0.2256
     16 N         137.7783  138.7923  167.7755 N.ar    1  UNL1       -0.0635
     17 N         137.9584  138.3939  166.3407 N.ar    1  UNL1       -0.1287
     18 C         139.1552  140.2915  169.5081 C.3     1  UNL1        0.1578
     19 C         140.3642  141.1463  169.7485 C.ar    1  UNL1        0.0296
     20 C         140.2364  142.6409  169.7559 C.ar    1  UNL1       -0.0001
     21 C         141.4453  143.4957  169.9964 C.ar    1  UNL1       -0.0001
     22 C         142.7819  142.8560  170.2295 C.ar    1  UNL1        0.0023
     23 C         142.9096  141.3615  170.2220 C.ar    1  UNL1        0.0294
     24 C         141.7007  140.5067  169.9816 C.ar    1  UNL1        0.1380
     25 F         141.8283  139.0120  169.9741 F       1  UNL1       -0.2044
     26 C         143.9104  140.4712  162.6800 C.3     1  UNL1        0.2525
     27 O         142.5154  140.6180  162.1486 O.3     1  UNL1       -0.4700
@<TRIPOS>BOND
     1    26    27    1
     2    27     1    1
     3     1     2   ar
     4     2     3   ar
     5     3    13    1
     6    13    14   ar
     7    14    15   ar
     8    15    18    1
     9    18    19    1
    10    19    20   ar
    11    20    21   ar
    12    21    22   ar
    13    22    23   ar
    14    23    24   ar
    15    24    25    1
    16    15    16   ar
    17    16    17   ar
    18     3     4   ar
    19     4     5   ar
    20     5     6   ar
    21     6     7    1
    22     7     8   ar
    23     8     9   ar
    24     9    10   ar
    25    10    11    1
    26    10    12   ar
    27     6     1   ar
    28    12     7   ar
    29    17    13   ar
    30    24    19   ar
@<TRIPOS>MOLECULE
*****
 27 30 0 0 0
SMALL
GASTEIGER

@<TRIPOS>ATOM
      1 C         139.6366  140.2402  162.3152 C.ar    1  UNL1        0.1547
      2 C         139.2597  140.3018  163.7657 C.ar    1  UNL1        0.0400
      3 C         139.1366  139.0372  164.5630 C.ar    1  UNL1        0.0241
      4 C         139.3903  137.7110  163.9098 C.ar    1  UNL1        0.0033
      5 C         139.7672  137.6494  162.4592 C.ar    1  UNL1        0.0207
      6 C         139.8903  138.9140  161.6619 C.ar    1  UNL1        0.0994
      7 N         140.2672  138.8523  160.2113 N.ar    1  UNL1       -0.2839
      8 C         139.3463  139.0853  159.0504 C.ar    1  UNL1        0.1826
      9 N         140.1411  138.9238  157.7886 N.ar    1  UNL1       -0.2280
     10 C         141.5533  138.5910  158.1696 C.ar    1  UNL1        0.0786
     11 C         142.6882  138.3455  157.2201 C.3     1  UNL1        0.0538
     12 C         141.6312  138.5468  159.6670 C.ar    1  UNL1        0.0963
     13 C         138.7597  139.0989  166.0136 C.ar    1  UNL1        0.1233
     14 C         139.4186  139.9474  167.0605 C.ar    1  UNL1        0.1179
     15 N         138.7238  139.6958  168.3659 N.ar    1  UNL1       -0.2256
     16 N         137.6355  138.6917  168.1258 N.ar    1  UNL1       -0.0635
     17 N         137.6577  138.3229  166.6720 N.ar    1  UNL1       -0.1287
     18 C         139.0586  140.3358  169.6805 C.3     1  UNL1        0.1578
     19 C         140.3176  141.1383  169.8250 C.ar    1  UNL1        0.0296
     20 C         140.2536  142.6370  169.8438 C.ar    1  UNL1       -0.0001
     21 C         141.5126  143.4395  169.9883 C.ar    1  UNL1       -0.0001
     22 C         142.8354  142.7436  170.1139 C.ar    1  UNL1        0.0023
     23 C         142.8993  141.2451  170.0952 C.ar    1  UNL1        0.0294
     24 C         141.6403  140.4425  169.9507 C.ar    1  UNL1        0.1380
     25 F         141.7042  138.9439  169.9319 F       1  UNL1       -0.2044
     26 C         141.0757  142.2210  161.4462 C.3     1  UNL1        0.2525
     27 O         139.7598  141.5048  161.5179 O.3     1  UNL1       -0.4700
@<TRIPOS>BOND
     1    26    27    1
     2    27     1    1
     3     1     2   ar
     4     2     3   ar
     5     3    13    1
     6    13    14   ar
     7    14    15   ar
     8    15    18    1
     9    18    19    1
    10    19    20   ar
    11    20    21   ar
    12    21    22   ar
    13    22    23   ar
    14    23    24   ar
    15    24    25    1
    16    15    16   ar
    17    16    17   ar
    18     3     4   ar
    19     4     5   ar
    20     5     6   ar
    21     6     7    1
    22     7     8   ar
    23     8     9   ar
    24     9    10   ar
    25    10    11    1
    26    10    12   ar
    27     6     1   ar
    28    12     7   ar
    29    17    13   ar
    30    24    19   ar
@<TRIPOS>MOLECULE
*****
 27 30 0 0 0
SMALL
GASTEIGER

@<TRIPOS>ATOM
      1 C         142.1813  138.0135  163.0810 C.ar    1  UNL1        0.1547
      2 C         142.2561  137.9681  161.5836 C.ar    1  UNL1        0.0400
      3 C         143.2478  138.8265  160.8558 C.ar    1  UNL1        0.0241
      4 C         144.1647  139.7303  161.6254 C.ar    1  UNL1        0.0033
      5 C         144.0899  139.7757  163.1228 C.ar    1  UNL1        0.0207
      6 C         143.0982  138.9173  163.8506 C.ar    1  UNL1        0.0994
      7 N         143.0234  138.9627  165.3481 N.ar    1  UNL1       -0.2839
      8 C         143.7992  138.0972  166.2963 C.ar    1  UNL1        0.1826
      9 N         143.4149  138.4812  167.6945 N.ar    1  UNL1       -0.2280
     10 C         142.4017  139.5841  167.6104 C.ar    1  UNL1        0.0786
     11 C         141.7456  140.2691  168.7724 C.3     1  UNL1        0.0538
     12 C         142.1597  139.8817  166.1603 C.ar    1  UNL1        0.0963
     13 C         143.3225  138.7810  159.3583 C.ar    1  UNL1        0.1233
     14 C         142.6157  137.8011  158.4695 C.ar    1  UNL1        0.1179
     15 N         142.9736  138.1220  157.0487 N.ar    1  UNL1       -0.2256
     16 N         143.9017  139.3004  157.0592 N.ar    1  UNL1       -0.0635
     17 N         144.1174  139.7077  158.4867 N.ar    1  UNL1       -0.1287
     18 C         142.4886  137.3926  155.8309 C.3     1  UNL1        0.1578
     19 C         142.5495  135.8947  155.7800 C.ar    1  UNL1        0.0296
     20 C         143.8187  135.1829  156.1443 C.ar    1  UNL1       -0.0001
     21 C         143.8797  133.6851  156.0933 C.ar    1  UNL1       -0.0001
     22 C         142.6715  132.8989  155.6780 C.ar    1  UNL1        0.0023
     23 C         141.4024  133.6107  155.3137 C.ar    1  UNL1        0.0294
     24 C         141.3415  135.1086  155.3647 C.ar    1  UNL1        0.1380
     25 F         140.0723  135.8205  155.0004 F       1  UNL1       -0.2044
     26 C         139.7989  137.6603  164.0554 C.3     1  UNL1        0.2525
     27 O         141.1895  137.1551  163.8088 O.3     1  UNL1       -0.4700
@<TRIPOS>BOND
     1    26    27    1
     2    27     1    1
     3     1     2   ar
     4     2     3   ar
     5     3    13    1
     6    13    14   ar
     7    14    15   ar
     8    15    18    1
     9    18    19    1
    10    19    20   ar
    11    20    21   ar
    12    21    22   ar
    13    22    23   ar
    14    23    24   ar
    15    24    25    1
    16    15    16   ar
    17    16    17   ar
    18     3     4   ar
    19     4     5   ar
    20     5     6   ar
    21     6     7    1
    22     7     8   ar
    23     8     9   ar
    24     9    10   ar
    25    10    11    1
    26    10    12   ar
    27     6     1   ar
    28    12     7   ar
    29    17    13   ar
    30    24    19   ar
@<TRIPOS>MOLECULE
*****
 27 30 0 0 0
SMALL
GASTEIGER

@<TRIPOS>ATOM
      1 C         139.6961  139.1533  162.1735 C.ar    1  UNL1        0.1547
      2 C         139.5608  138.9197  163.6490 C.ar    1  UNL1        0.0400
      3 C         138.6717  139.8058  164.4702 C.ar    1  UNL1        0.0241
      4 C         137.9179  140.9254  163.8159 C.ar    1  UNL1        0.0033
      5 C         138.0532  141.1590  162.3405 C.ar    1  UNL1        0.0207
      6 C         138.9423  140.2729  161.5193 C.ar    1  UNL1        0.0994
      7 N         139.0776  140.5065  160.0437 N.ar    1  UNL1       -0.2839
      8 C         140.3160  140.9674  159.3339 C.ar    1  UNL1        0.1826
      9 N         140.0020  141.0660  157.8704 N.ar    1  UNL1       -0.2280
     10 C         138.5694  140.6661  157.6758 C.ar    1  UNL1        0.0786
     11 C         137.8367  140.6200  156.3677 C.3     1  UNL1        0.0538
     12 C         137.9981  140.3203  159.0189 C.ar    1  UNL1        0.0963
     13 C         138.5364  139.5722  165.9458 C.ar    1  UNL1        0.1233
     14 C         139.3826  140.1924  167.0179 C.ar    1  UNL1        0.1179
     15 N         138.9003  139.6808  168.3429 N.ar    1  UNL1       -0.2256
     16 N         137.7561  138.7444  168.0898 N.ar    1  UNL1       -0.0635
     17 N         137.5312  138.6773  166.6083 N.ar    1  UNL1       -0.1287
     18 C         139.4634  140.0422  169.6855 C.3     1  UNL1        0.1578
     19 C         140.6527  140.9515  169.7799 C.ar    1  UNL1        0.0296
     20 C         140.4566  142.4363  169.8641 C.ar    1  UNL1       -0.0001
     21 C         141.6459  143.3456  169.9586 C.ar    1  UNL1       -0.0001
     22 C         143.0311  142.7701  169.9688 C.ar    1  UNL1        0.0023
     23 C         143.2270  141.2854  169.8846 C.ar    1  UNL1        0.0294
     24 C         142.0378  140.3761  169.7902 C.ar    1  UNL1        0.1380
     25 F         142.2337  138.8913  169.7060 F       1  UNL1       -0.2044
     26 C         142.0514  138.5658  161.2477 C.3     1  UNL1        0.2525
     27 O         140.5852  138.2672  161.3523 O.3     1  UNL1       -0.4700
@<TRIPOS>BOND
     1    26    27    1
     2    27     1    1
     3     1     2   ar
     4     2     3   ar
     5     3    13    1
     6    13    14   ar
     7    14    15   ar
     8    15    18    1
     9    18    19    1
    10    19    20   ar
    11    20    21   ar
    12    21    22   ar
    13    22    23   ar
    14    23    24   ar
    15    24    25    1
    16    15    16   ar
    17    16    17   ar
    18     3     4   ar
    19     4     5   ar
    20     5     6   ar
    21     6     7    1
    22     7     8   ar
    23     8     9   ar
    24     9    10   ar
    25    10    11    1
    26    10    12   ar
    27     6     1   ar
    28    12     7   ar
    29    17    13   ar
    30    24    19   ar
@<TRIPOS>MOLECULE
*****
 27 30 0 0 0
SMALL
GASTEIGER

@<TRIPOS>ATOM
      1 C         140.1592  139.3624  161.1556 C.ar    1  UNL1        0.1547
      2 C         140.8072  139.1140  159.8258 C.ar    1  UNL1        0.0400
      3 C         142.0479  138.2752  159.7410 C.ar    1  UNL1        0.0241
      4 C         142.6405  137.6849  160.9860 C.ar    1  UNL1        0.0033
      5 C         141.9926  137.9332  162.3158 C.ar    1  UNL1        0.0207
      6 C         140.7519  138.7720  162.4006 C.ar    1  UNL1        0.0994
      7 N         140.1039  139.0204  163.7305 N.ar    1  UNL1       -0.2839
      8 C         140.3327  140.2106  164.6142 C.ar    1  UNL1        0.1826
      9 N         139.4836  140.0479  165.8399 N.ar    1  UNL1       -0.2280
     10 C         138.7299  138.7571  165.7138 C.ar    1  UNL1        0.0786
     11 C         137.7628  138.1993  166.7155 C.3     1  UNL1        0.0538
     12 C         139.1133  138.1221  164.4101 C.ar    1  UNL1        0.0963
     13 C         142.6959  138.0269  158.4111 C.ar    1  UNL1        0.1233
     14 C         142.7524  136.7131  157.6895 C.ar    1  UNL1        0.1179
     15 N         143.4925  136.9230  156.4019 N.ar    1  UNL1       -0.2256
     16 N         143.8935  138.3665  156.3276 N.ar    1  UNL1       -0.0635
     17 N         143.4011  139.0488  157.5694 N.ar    1  UNL1       -0.1287
     18 C         143.7811  135.8736  155.3696 C.3     1  UNL1        0.1578
     19 C         143.2090  134.4953  155.5210 C.ar    1  UNL1        0.0296
     20 C         144.0574  133.3873  156.0715 C.ar    1  UNL1       -0.0001
     21 C         143.4853  132.0090  156.2228 C.ar    1  UNL1       -0.0001
     22 C         142.0648  131.7386  155.8238 C.ar    1  UNL1        0.0023
     23 C         141.2165  132.8464  155.2734 C.ar    1  UNL1        0.0294
     24 C         141.7886  134.2247  155.1220 C.ar    1  UNL1        0.1380
     25 F         140.9403  135.3327  154.5716 F       1  UNL1       -0.2044
     26 C         137.5898  139.6149  160.8655 C.3     1  UNL1        0.2525
     27 O         138.9185  140.2012  161.2403 O.3     1  UNL1       -0.4700
@<TRIPOS>BOND
     1    26    27    1
     2    27     1    1
     3     1     2   ar
     4     2     3   ar
     5     3    13    1
     6    13    14   ar
     7    14    15   ar
     8    15    18    1
     9    18    19    1
    10    19    20   ar
    11    20    21   ar
    12    21    22   ar
    13    22    23   ar
    14    23    24   ar
    15    24    25    1
    16    15    16   ar
    17    16    17   ar
    18     3     4   ar
    19     4     5   ar
    20     5     6   ar
    21     6     7    1
    22     7     8   ar
    23     8     9   ar
    24     9    10   ar
    25    10    11    1
    26    10    12   ar
    27     6     1   ar
    28    12     7   ar
    29    17    13   ar
    30    24    19   ar
@<TRIPOS>MOLECULE
*****
 27 30 0 0 0
SMALL
GASTEIGER

@<TRIPOS>ATOM
      1 C         141.0426  141.8520  164.9280 C.ar    1  UNL1        0.1547
      2 C         140.9695  142.6192  163.6411 C.ar    1  UNL1        0.0400
      3 C         140.1719  143.8875  163.5683 C.ar    1  UNL1        0.0241
      4 C         139.4475  144.3886  164.7823 C.ar    1  UNL1        0.0033
      5 C         139.5206  143.6215  166.0692 C.ar    1  UNL1        0.0207
      6 C         140.3182  142.3532  166.1420 C.ar    1  UNL1        0.0994
      7 N         140.3912  141.5861  167.4290 N.ar    1  UNL1       -0.2839
      8 C         139.6721  140.3056  167.7343 C.ar    1  UNL1        0.1826
      9 N         140.0327  139.8929  169.1305 N.ar    1  UNL1       -0.2280
     10 C         140.9748  140.9184  169.6883 C.ar    1  UNL1        0.0786
     11 C         141.5876  140.9005  171.0573 C.3     1  UNL1        0.0538
     12 C         141.1963  141.9648  168.6367 C.ar    1  UNL1        0.0963
     13 C         140.0989  144.6546  162.2813 C.ar    1  UNL1        0.1233
     14 C         140.8786  144.3606  161.0341 C.ar    1  UNL1        0.1179
     15 N         140.4948  145.3747  159.9976 N.ar    1  UNL1       -0.2256
     16 N         139.4779  146.2956  160.6043 N.ar    1  UNL1       -0.0635
     17 N         139.2332  145.8505  162.0157 N.ar    1  UNL1       -0.1287
     18 C         141.0334  145.4541  158.5999 C.3     1  UNL1        0.1578
     19 C         140.0935  145.4257  157.4312 C.ar    1  UNL1        0.0296
     20 C         139.7770  146.6923  156.6924 C.ar    1  UNL1       -0.0001
     21 C         138.8371  146.6639  155.5237 C.ar    1  UNL1       -0.0001
     22 C         138.2137  145.3691  155.0939 C.ar    1  UNL1        0.0023
     23 C         138.5302  144.1026  155.8326 C.ar    1  UNL1        0.0294
     24 C         139.4701  144.1310  157.0013 C.ar    1  UNL1        0.1380
     25 F         139.7866  142.8644  157.7402 F       1  UNL1       -0.2044
     26 C         143.2794  140.6259  165.4214 C.3     1  UNL1        0.2525
     27 O         141.8402  140.5838  165.0009 O.3     1  UNL1       -0.4700
@<TRIPOS>BOND
     1    26    27    1
     2    27     1    1
     3     1     2   ar
     4     2     3   ar
     5     3    13    1
     6    13    14   ar
     7    14    15   ar
     8    15    18    1
     9    18    19    1
    10    19    20   ar
    11    20    21   ar
    12    21    22   ar
    13    22    23   ar
    14    23    24   ar
    15    24    25    1
    16    15    16   ar
    17    16    17   ar
    18     3     4   ar
    19     4     5   ar
    20     5     6   ar
    21     6     7    1
    22     7     8   ar
    23     8     9   ar
    24     9    10   ar
    25    10    11    1
    26    10    12   ar
    27     6     1   ar
    28    12     7   ar
    29    17    13   ar
    30    24    19   ar
@<TRIPOS>MOLECULE
*****
 27 30 0 0 0
SMALL
GASTEIGER

@<TRIPOS>ATOM
      1 C         139.0588  140.0334  163.7089 C.ar    1  UNL1        0.1547
      2 C         139.4046  139.8439  162.2617 C.ar    1  UNL1        0.0400
      3 C         140.1659  138.6274  161.8255 C.ar    1  UNL1        0.0241
      4 C         140.5815  137.6002  162.8366 C.ar    1  UNL1        0.0033
      5 C         140.2357  137.7897  164.2838 C.ar    1  UNL1        0.0207
      6 C         139.4743  139.0063  164.7199 C.ar    1  UNL1        0.0994
      7 N         139.1286  139.1957  166.1673 N.ar    1  UNL1       -0.2839
      8 C         137.9293  138.6302  166.8686 C.ar    1  UNL1        0.1826
      9 N         137.9809  139.0689  168.3020 N.ar    1  UNL1       -0.2280
     10 C         139.2121  139.9056  168.4867 C.ar    1  UNL1        0.0786
     11 C         139.6561  140.5506  169.7661 C.3     1  UNL1        0.0538
     12 C         139.9214  139.9840  167.1673 C.ar    1  UNL1        0.0963
     13 C         140.5117  138.4379  160.3782 C.ar    1  UNL1        0.1233
     14 C         141.8832  138.1876  159.8248 C.ar    1  UNL1        0.1179
     15 N         141.7658  138.0605  158.3348 N.ar    1  UNL1       -0.2256
     16 N         140.3217  138.2324  157.9673 N.ar    1  UNL1       -0.0635
     17 N         139.5466  138.4657  159.2302 N.ar    1  UNL1       -0.1287
     18 C         142.8943  137.8063  157.3800 C.3     1  UNL1        0.1578
     19 C         142.8004  136.6836  156.3896 C.ar    1  UNL1        0.0296
     20 C         142.4738  136.9747  154.9547 C.ar    1  UNL1       -0.0001
     21 C         142.3798  135.8520  153.9644 C.ar    1  UNL1       -0.0001
     22 C         142.6123  134.4384  154.4088 C.ar    1  UNL1        0.0023
     23 C         142.9389  134.1474  155.8436 C.ar    1  UNL1        0.0294
     24 C         143.0329  135.2700  156.8339 C.ar    1  UNL1        0.1380
     25 F         143.3595  134.9790  158.2688 F       1  UNL1       -0.2044
     26 C         137.3776  141.9435  163.1844 C.3     1  UNL1        0.2525
     27 O         138.2974  141.2500  164.1451 O.3     1  UNL1       -0.4700
@<TRIPOS>BOND
     1    26    27    1
     2    27     1    1
     3     1     2   ar
     4     2     3   ar
     5     3    13    1
     6    13    14   ar
     7    14    15   ar
     8    15    18    1
     9    18    19    1
    10    19    20   ar
    11    20    21   ar
    12    21    22   ar
    13    22    23   ar
    14    23    24   ar
    15    24    25    1
    16    15    16   ar
    17    16    17   ar
    18     3     4   ar
    19     4     5   ar
    20     5     6   ar
    21     6     7    1
    22     7     8   ar
    23     8     9   ar
    24     9    10   ar
    25    10    11    1
    26    10    12   ar
    27     6     1   ar
    28    12     7   ar
    29    17    13   ar
    30    24    19   ar
@<TRIPOS>MOLECULE
*****
 27 30 0 0 0
SMALL
GASTEIGER

@<TRIPOS>ATOM
      1 C         142.8284  143.3618  157.4157 C.ar    1  UNL1        0.1547
      2 C         141.7797  143.9283  158.3263 C.ar    1  UNL1        0.0400
      3 C         141.9331  143.8075  159.8135 C.ar    1  UNL1        0.0241
      4 C         143.1353  143.1204  160.3901 C.ar    1  UNL1        0.0033
      5 C         144.1841  142.5540  159.4795 C.ar    1  UNL1        0.0207
      6 C         144.0306  142.6747  157.9922 C.ar    1  UNL1        0.0994
      7 N         145.0794  142.1082  157.0816 N.ar    1  UNL1       -0.2839
      8 C         144.9034  140.9463  156.1494 C.ar    1  UNL1        0.1826
      9 N         146.2035  140.7242  155.4350 N.ar    1  UNL1       -0.2280
     10 C         147.1830  141.7489  155.9256 C.ar    1  UNL1        0.0786
     11 C         148.6072  141.8930  155.4774 C.3     1  UNL1        0.0538
     12 C         146.4882  142.6043  156.9433 C.ar    1  UNL1        0.0963
     13 C         140.8844  144.3740  160.7242 C.ar    1  UNL1        0.1233
     14 C         140.5048  143.8381  162.0727 C.ar    1  UNL1        0.1179
     15 N         139.4169  144.7087  162.6281 N.ar    1  UNL1       -0.2256
     16 N         139.1241  145.7828  161.6228 N.ar    1  UNL1       -0.0635
     17 N         140.0310  145.5759  160.4461 N.ar    1  UNL1       -0.1287
     18 C         138.7405  144.5357  163.9558 C.3     1  UNL1        0.1578
     19 C         138.9654  143.2864  164.7550 C.ar    1  UNL1        0.0296
     20 C         139.9955  143.2690  165.8453 C.ar    1  UNL1       -0.0001
     21 C         140.2205  142.0197  166.6445 C.ar    1  UNL1       -0.0001
     22 C         139.4155  140.7880  166.3535 C.ar    1  UNL1        0.0023
     23 C         138.3855  140.8055  165.2632 C.ar    1  UNL1        0.0294
     24 C         138.1605  142.0547  164.4640 C.ar    1  UNL1        0.1380
     25 F         137.1305  142.0722  163.3736 F       1  UNL1       -0.2044
     26 C         142.6414  144.8373  155.2854 C.3     1  UNL1        0.2525
     27 O         142.6749  143.4826  155.9284 O.3     1  UNL1       -0.4700
@<TRIPOS>BOND
     1    26    27    1
     2    27     1    1
     3     1     2   ar
     4     2     3   ar
     5     3    13    1
     6    13    14   ar
     7    14    15   ar
     8    15    18    1
     9    18    19    1
    10    19    20   ar
    11    20    21   ar
    12    21    22   ar
    13    22    23   ar
    14    23    24   ar
    15    24    25    1
    16    15    16   ar
    17    16    17   ar
    18     3     4   ar
    19     4     5   ar
    20     5     6   ar
    21     6     7    1
    22     7     8   ar
    23     8     9   ar
    24     9    10   ar
    25    10    11    1
    26    10    12   ar
    27     6     1   ar
    28    12     7   ar
    29    17    13   ar
    30    24    19   ar
@<TRIPOS>MOLECULE
*****
 27 30 0 0 0
SMALL
GASTEIGER

@<TRIPOS>ATOM
      1 C         138.5955  140.1763  159.3676 C.ar    1  UNL1        0.1547
      2 C         138.6429  139.4384  160.6726 C.ar    1  UNL1        0.0400
      3 C         138.5025  140.1886  161.9639 C.ar    1  UNL1        0.0241
      4 C         138.3147  141.6767  161.9502 C.ar    1  UNL1        0.0033
      5 C         138.2673  142.4146  160.6451 C.ar    1  UNL1        0.0207
      6 C         138.4077  141.6644  159.3538 C.ar    1  UNL1        0.0994
      7 N         138.3603  142.4024  158.0487 N.ar    1  UNL1       -0.2839
      8 C         139.4327  143.2978  157.5027 C.ar    1  UNL1        0.1826
      9 N         138.9673  143.8232  156.1770 N.ar    1  UNL1       -0.2280
     10 C         137.6072  143.2526  155.9038 C.ar    1  UNL1        0.0786
     11 C         136.7695  143.5141  154.6873 C.3     1  UNL1        0.0538
     12 C         137.2321  142.3744  157.0605 C.ar    1  UNL1        0.0963
     13 C         138.5499  139.4507  163.2691 C.ar    1  UNL1        0.1233
     14 C         138.3394  140.0489  164.6284 C.ar    1  UNL1        0.1179
     15 N         138.4755  138.9529  165.6433 N.ar    1  UNL1       -0.2256
     16 N         138.7702  137.6772  164.9113 N.ar    1  UNL1       -0.0635
     17 N         138.8162  137.9849  163.4439 N.ar    1  UNL1       -0.1287
     18 C         138.3407  139.1057  167.1294 C.3     1  UNL1        0.1578
     19 C         139.4070  139.8152  167.9103 C.ar    1  UNL1        0.0296
     20 C         140.7283  140.1206  167.2692 C.ar    1  UNL1       -0.0001
     21 C         141.7946  140.8301  168.0500 C.ar    1  UNL1       -0.0001
     22 C         141.5395  141.2343  169.4718 C.ar    1  UNL1        0.0023
     23 C         140.2182  140.9289  170.1128 C.ar    1  UNL1        0.0294
     24 C         139.1520  140.2194  169.3320 C.ar    1  UNL1        0.1380
     25 F         137.8306  139.9140  169.9730 F       1  UNL1       -0.2044
     26 C         139.7782  138.3561  157.9400 C.3     1  UNL1        0.2525
     27 O         138.7359  139.4261  158.0763 O.3     1  UNL1       -0.4700
@<TRIPOS>BOND
     1    26    27    1
     2    27     1    1
     3     1     2   ar
     4     2     3   ar
     5     3    13    1
     6    13    14   ar
     7    14    15   ar
     8    15    18    1
     9    18    19    1
    10    19    20   ar
    11    20    21   ar
    12    21    22   ar
    13    22    23   ar
    14    23    24   ar
    15    24    25    1
    16    15    16   ar
    17    16    17   ar
    18     3     4   ar
    19     4     5   ar
    20     5     6   ar
    21     6     7    1
    22     7     8   ar
    23     8     9   ar
    24     9    10   ar
    25    10    11    1
    26    10    12   ar
    27     6     1   ar
    28    12     7   ar
    29    17    13   ar
    30    24    19   ar
