@<TRIPOS>MOLECULE
*****
 30 35 0 0 0
SMALL
GASTEIGER

@<TRIPOS>ATOM
      1 C         142.5458  142.0859  162.4489 C.3     1  UNL1        0.0118
      2 C         141.3212  142.1525  163.3126 C.3     1  UNL1        0.0009
      3 C         140.2003  141.9448  164.2875 C.3     1  UNL1        0.0044
      4 C         140.4399  140.6465  164.9995 C.3     1  UNL1        0.0224
      5 C         141.7089  140.0518  164.4647 C.3     1  UNL1        0.0044
      6 C         142.2536  140.9826  163.4221 C.3     1  UNL1        0.0009
      7 C         139.5642  140.0478  166.0602 C.ar    1  UNL1       -0.0194
      8 C         138.5914  138.9627  165.7052 C.ar    1  UNL1        0.0164
      9 C         137.7158  138.3641  166.7659 C.ar    1  UNL1        0.0985
     10 N         137.8130  138.8507  168.1814 N.ar    1  UNL1       -0.2439
     11 C         138.7858  139.9359  168.5363 C.ar    1  UNL1        0.0811
     12 C         138.8829  140.4225  169.9519 C.ar    1  UNL1        0.0214
     13 C         139.8557  141.5077  170.3068 C.ar    1  UNL1        0.0312
     14 C         140.7314  142.1063  169.2461 C.ar    1  UNL1        0.1402
     15 F         141.7042  143.1915  169.6010 F       1  UNL1       -0.2042
     16 C         140.6342  141.6197  167.8306 C.ar    1  UNL1        0.0308
     17 C         139.6614  140.5345  167.4757 C.ar    1  UNL1        0.0160
     18 C         143.4214  142.6845  161.3883 C.3     1  UNL1        0.1120
     19 C         142.8085  143.4522  160.2547 C.2     1  UNL1        0.3506
     20 N         141.5738  144.3006  160.3304 N.2     1  UNL1       -0.0350
     21 C         141.3249  144.8790  158.9689 C.2     1  UNL1        0.2326
     22 C         140.2536  145.7894  158.4457 C.2     1  UNL1        0.0612
     23 C         140.2632  146.2088  157.0056 C.2     1  UNL1        0.0577
     24 CL        139.1920  147.1191  156.4824 Cl      1  UNL1       -0.0824
     25 C         141.3441  145.7179  156.0886 C.2     1  UNL1       -0.0058
     26 C         142.4153  144.8076  156.6118 C.3     1  UNL1        0.1046
     27 C         142.4057  144.3882  158.0520 C.2     1  UNL1        0.2175
     28 N         143.3227  143.5063  158.8467 N.2     1  UNL1       -0.0389
     29 C         145.5575  142.1191  162.7549 C.3     1  UNL1        0.0006
     30 C         144.9101  142.5153  161.4612 C.3     1  UNL1        0.0124
@<TRIPOS>BOND
     1    29    30    1
     2    30    18    1
     3    18    19    1
     4    19    20    2
     5    20    21    1
     6    21    22    2
     7    22    23    1
     8    23    24    1
     9    23    25    2
    10    25    26    1
    11    26    27    1
    12    27    28    2
    13     1    18    1
    14     1     2    1
    15     2     3    1
    16     3     4    1
    17     4     7    1
    18     7     8   ar
    19     8     9   ar
    20     9    10   ar
    21    10    11   ar
    22    11    12   ar
    23    12    13   ar
    24    13    14   ar
    25    14    15    1
    26    14    16   ar
    27    16    17   ar
    28     4     5    1
    29     6     5    1
    30    28    19    1
    31     6     1    1
    32    27    21    1
    33     6     2    1
    34    17     7   ar
    35    17    11   ar
@<TRIPOS>MOLECULE
*****
 30 35 0 0 0
SMALL
GASTEIGER

@<TRIPOS>ATOM
      1 C         138.7222  139.4510  164.6399 C.3     1  UNL1        0.0118
      2 C         138.0413  140.2894  163.5989 C.3     1  UNL1        0.0009
      3 C         137.5906  141.0246  162.3716 C.3     1  UNL1        0.0044
      4 C         138.5490  140.7063  161.2625 C.3     1  UNL1        0.0224
      5 C         139.5920  139.7744  161.8044 C.3     1  UNL1        0.0044
      6 C         139.2783  139.5167  163.2484 C.3     1  UNL1        0.0009
      7 C         138.4770  141.2283  159.8580 C.ar    1  UNL1       -0.0194
      8 C         137.7582  140.4424  158.8018 C.ar    1  UNL1        0.0164
      9 C         137.6863  140.9644  157.3974 C.ar    1  UNL1        0.0985
     10 N         138.3331  142.2722  157.0493 N.ar    1  UNL1       -0.2439
     11 C         139.0519  143.0581  158.1056 C.ar    1  UNL1        0.0811
     12 C         139.6987  144.3659  157.7575 C.ar    1  UNL1        0.0214
     13 C         140.4175  145.1517  158.8137 C.ar    1  UNL1        0.0312
     14 C         140.4895  144.6298  160.2182 C.ar    1  UNL1        0.1402
     15 F         141.2083  145.4156  161.2745 F       1  UNL1       -0.2042
     16 C         139.8427  143.3219  160.5663 C.ar    1  UNL1        0.0308
     17 C         139.1238  142.5361  159.5099 C.ar    1  UNL1        0.0160
     18 C         138.7942  138.9290  166.0443 C.3     1  UNL1        0.1120
     19 C         139.6791  139.6031  167.0505 C.2     1  UNL1        0.3506
     20 N         141.0216  140.2131  166.7754 N.2     1  UNL1       -0.0350
     21 C         141.5491  140.7725  168.0634 C.2     1  UNL1        0.2326
     22 C         142.8238  141.4884  168.3994 C.2     1  UNL1        0.0612
     23 C         143.0819  141.9400  169.8062 C.2     1  UNL1        0.0577
     24 CL        144.3565  142.6559  170.1421 Cl      1  UNL1       -0.0824
     25 C         142.0655  141.6757  170.8772 C.2     1  UNL1       -0.0058
     26 C         140.7909  140.9598  170.5413 C.3     1  UNL1        0.1046
     27 C         140.5327  140.5081  169.1344 C.2     1  UNL1        0.2175
     28 N         139.3770  139.7854  168.5083 N.2     1  UNL1       -0.0389
     29 C         136.9485  137.8541  167.5236 C.3     1  UNL1        0.0006
     30 C         137.9812  137.7329  166.4425 C.3     1  UNL1        0.0124
@<TRIPOS>BOND
     1    29    30    1
     2    30    18    1
     3    18    19    1
     4    19    20    2
     5    20    21    1
     6    21    22    2
     7    22    23    1
     8    23    24    1
     9    23    25    2
    10    25    26    1
    11    26    27    1
    12    27    28    2
    13     1    18    1
    14     1     2    1
    15     2     3    1
    16     3     4    1
    17     4     7    1
    18     7     8   ar
    19     8     9   ar
    20     9    10   ar
    21    10    11   ar
    22    11    12   ar
    23    12    13   ar
    24    13    14   ar
    25    14    15    1
    26    14    16   ar
    27    16    17   ar
    28     4     5    1
    29     6     5    1
    30    28    19    1
    31     6     1    1
    32    27    21    1
    33     6     2    1
    34    17     7   ar
    35    17    11   ar
@<TRIPOS>MOLECULE
*****
 30 35 0 0 0
SMALL
GASTEIGER

@<TRIPOS>ATOM
      1 C         142.6925  137.9687  158.7264 C.3     1  UNL1        0.0118
      2 C         142.0388  138.6856  159.8704 C.3     1  UNL1        0.0009
      3 C         141.6355  139.3046  161.1759 C.3     1  UNL1        0.0044
      4 C         142.6965  138.9861  162.1873 C.3     1  UNL1        0.0224
      5 C         143.7555  138.1703  161.5068 C.3     1  UNL1        0.0044
      6 C         143.3490  137.9846  160.0750 C.3     1  UNL1        0.0009
      7 C         142.6982  139.4092  163.6264 C.ar    1  UNL1       -0.0194
      8 C         142.1800  138.4784  164.6824 C.ar    1  UNL1        0.0164
      9 C         142.1817  138.9015  166.1214 C.ar    1  UNL1        0.0985
     10 N         142.7017  140.2553  166.5046 N.ar    1  UNL1       -0.2439
     11 C         143.2200  141.1860  165.4486 C.ar    1  UNL1        0.0811
     12 C         143.7400  142.5398  165.8317 C.ar    1  UNL1        0.0214
     13 C         144.2582  143.4706  164.7758 C.ar    1  UNL1        0.0312
     14 C         144.2565  143.0476  163.3366 C.ar    1  UNL1        0.1402
     15 F         144.7748  143.9783  162.2807 F       1  UNL1       -0.2042
     16 C         143.7365  141.6937  162.9535 C.ar    1  UNL1        0.0308
     17 C         143.2182  140.7630  164.0095 C.ar    1  UNL1        0.0160
     18 C         142.6908  137.5457  157.2873 C.3     1  UNL1        0.1120
     19 C         142.5941  136.0913  156.9332 C.2     1  UNL1        0.3506
     20 N         143.3881  134.9788  157.5512 N.2     1  UNL1       -0.0350
     21 C         142.9711  133.6940  156.8989 C.2     1  UNL1        0.2326
     22 C         143.4132  132.2751  157.1027 C.2     1  UNL1        0.0612
     23 C         142.8036  131.1749  156.2856 C.2     1  UNL1        0.0577
     24 CL        143.2457  129.7561  156.4895 Cl      1  UNL1       -0.0824
     25 C         141.7520  131.4934  155.2645 C.2     1  UNL1       -0.0058
     26 C         141.3099  132.9122  155.0606 C.3     1  UNL1        0.1046
     27 C         141.9195  134.0125  155.8778 C.2     1  UNL1        0.2175
     28 N         141.6865  135.4942  155.8991 N.2     1  UNL1       -0.0389
     29 C         143.5981  139.8196  156.4176 C.3     1  UNL1        0.0006
     30 C         142.7858  138.5771  156.2022 C.3     1  UNL1        0.0124
@<TRIPOS>BOND
     1    29    30    1
     2    30    18    1
     3    18    19    1
     4    19    20    2
     5    20    21    1
     6    21    22    2
     7    22    23    1
     8    23    24    1
     9    23    25    2
    10    25    26    1
    11    26    27    1
    12    27    28    2
    13     1    18    1
    14     1     2    1
    15     2     3    1
    16     3     4    1
    17     4     7    1
    18     7     8   ar
    19     8     9   ar
    20     9    10   ar
    21    10    11   ar
    22    11    12   ar
    23    12    13   ar
    24    13    14   ar
    25    14    15    1
    26    14    16   ar
    27    16    17   ar
    28     4     5    1
    29     6     5    1
    30    28    19    1
    31     6     1    1
    32    27    21    1
    33     6     2    1
    34    17     7   ar
    35    17    11   ar
@<TRIPOS>MOLECULE
*****
 30 35 0 0 0
SMALL
GASTEIGER

@<TRIPOS>ATOM
      1 C         141.5390  139.9412  160.8712 C.3     1  UNL1        0.0118
      2 C         141.3955  139.1862  162.1595 C.3     1  UNL1        0.0009
      3 C         141.0611  138.6673  163.5265 C.3     1  UNL1        0.0044
      4 C         140.1176  139.6379  164.1728 C.3     1  UNL1        0.0224
      5 C         139.8689  140.7568  163.2052 C.3     1  UNL1        0.0044
      6 C         140.6587  140.4777  161.9609 C.3     1  UNL1        0.0009
      7 C         139.5264  139.5118  165.5457 C.ar    1  UNL1       -0.0194
      8 C         138.2836  138.6986  165.7553 C.ar    1  UNL1        0.0164
      9 C         137.6925  138.5726  167.1281 C.ar    1  UNL1        0.0985
     10 N         138.3443  139.2597  168.2913 N.ar    1  UNL1       -0.2439
     11 C         139.5872  140.0728  168.0817 C.ar    1  UNL1        0.0811
     12 C         140.2391  140.7599  169.2449 C.ar    1  UNL1        0.0214
     13 C         141.4820  141.5730  169.0353 C.ar    1  UNL1        0.0312
     14 C         142.0731  141.6991  167.6624 C.ar    1  UNL1        0.1402
     15 F         143.3160  142.5122  167.4528 F       1  UNL1       -0.2042
     16 C         141.4212  141.0120  166.4992 C.ar    1  UNL1        0.0308
     17 C         140.1783  140.1988  166.7089 C.ar    1  UNL1        0.0160
     18 C         142.1301  140.0673  159.4984 C.3     1  UNL1        0.1120
     19 C         142.0461  138.9188  158.5373 C.2     1  UNL1        0.3506
     20 N         143.0770  137.8446  158.3549 N.2     1  UNL1       -0.0350
     21 C         142.5845  136.9048  157.2946 C.2     1  UNL1        0.2326
     22 C         143.1794  135.6634  156.6986 C.2     1  UNL1        0.0612
     23 C         142.4390  134.9155  155.6298 C.2     1  UNL1        0.0577
     24 CL        143.0339  133.6742  155.0338 Cl      1  UNL1       -0.0824
     25 C         141.1037  135.4089  155.1570 C.2     1  UNL1       -0.0058
     26 C         140.5088  136.6502  155.7529 C.3     1  UNL1        0.1046
     27 C         141.2492  137.3982  156.8218 C.2     1  UNL1        0.2175
     28 N         140.9164  138.6429  157.5898 N.2     1  UNL1       -0.0389
     29 C         143.6587  142.0895  160.0679 C.3     1  UNL1        0.0006
     30 C         142.8052  141.3420  159.0867 C.3     1  UNL1        0.0124
@<TRIPOS>BOND
     1    29    30    1
     2    30    18    1
     3    18    19    1
     4    19    20    2
     5    20    21    1
     6    21    22    2
     7    22    23    1
     8    23    24    1
     9    23    25    2
    10    25    26    1
    11    26    27    1
    12    27    28    2
    13     1    18    1
    14     1     2    1
    15     2     3    1
    16     3     4    1
    17     4     7    1
    18     7     8   ar
    19     8     9   ar
    20     9    10   ar
    21    10    11   ar
    22    11    12   ar
    23    12    13   ar
    24    13    14   ar
    25    14    15    1
    26    14    16   ar
    27    16    17   ar
    28     4     5    1
    29     6     5    1
    30    28    19    1
    31     6     1    1
    32    27    21    1
    33     6     2    1
    34    17     7   ar
    35    17    11   ar
@<TRIPOS>MOLECULE
*****
 30 35 0 0 0
SMALL
GASTEIGER

@<TRIPOS>ATOM
      1 C         141.8342  139.9898  168.5980 C.3     1  UNL1        0.0118
      2 C         140.5496  139.9277  167.8260 C.3     1  UNL1        0.0009
      3 C         139.4522  139.7988  166.8115 C.3     1  UNL1        0.0044
      4 C         140.0794  139.4667  165.4900 C.3     1  UNL1        0.0224
      5 C         141.5643  139.3902  165.6878 C.3     1  UNL1        0.0044
      6 C         141.8550  139.6752  167.1315 C.3     1  UNL1        0.0009
      7 C         139.3497  139.2491  164.1976 C.ar    1  UNL1       -0.0194
      8 C         139.0136  137.8571  163.7512 C.ar    1  UNL1        0.0164
      9 C         138.2839  137.6396  162.4589 C.ar    1  UNL1        0.0985
     10 N         137.8904  138.8141  161.6129 N.ar    1  UNL1       -0.2439
     11 C         138.2265  140.2061  162.0593 C.ar    1  UNL1        0.0811
     12 C         137.8329  141.3806  161.2133 C.ar    1  UNL1        0.0214
     13 C         138.1690  142.7726  161.6597 C.ar    1  UNL1        0.0312
     14 C         138.8987  142.9902  162.9522 C.ar    1  UNL1        0.1402
     15 F         139.2347  144.3822  163.3986 F       1  UNL1       -0.2042
     16 C         139.2922  141.8157  163.7981 C.ar    1  UNL1        0.0308
     17 C         138.9561  140.4236  163.3517 C.ar    1  UNL1        0.0160
     18 C         142.5639  140.2074  169.8903 C.3     1  UNL1        0.1120
     19 C         143.3048  139.0727  170.5335 C.2     1  UNL1        0.3506
     20 N         144.3329  139.1939  171.6191 N.2     1  UNL1       -0.0350
     21 C         144.8111  137.8138  171.9605 C.2     1  UNL1        0.2326
     22 C         145.8190  137.3181  172.9548 C.2     1  UNL1        0.0612
     23 C         146.0943  135.8485  173.0746 C.2     1  UNL1        0.0577
     24 CL        147.1022  135.3529  174.0688 Cl      1  UNL1       -0.0824
     25 C         145.3618  134.8745  172.2001 C.2     1  UNL1       -0.0058
     26 C         144.3540  135.3701  171.2059 C.3     1  UNL1        0.1046
     27 C         144.0786  136.8398  171.0861 C.2     1  UNL1        0.2175
     28 N         143.1476  137.6179  170.2041 N.2     1  UNL1       -0.0389
     29 C         143.4067  142.6630  169.9889 C.3     1  UNL1        0.0006
     30 C         142.5528  141.5596  170.5396 C.3     1  UNL1        0.0124
@<TRIPOS>BOND
     1    29    30    1
     2    30    18    1
     3    18    19    1
     4    19    20    2
     5    20    21    1
     6    21    22    2
     7    22    23    1
     8    23    24    1
     9    23    25    2
    10    25    26    1
    11    26    27    1
    12    27    28    2
    13     1    18    1
    14     1     2    1
    15     2     3    1
    16     3     4    1
    17     4     7    1
    18     7     8   ar
    19     8     9   ar
    20     9    10   ar
    21    10    11   ar
    22    11    12   ar
    23    12    13   ar
    24    13    14   ar
    25    14    15    1
    26    14    16   ar
    27    16    17   ar
    28     4     5    1
    29     6     5    1
    30    28    19    1
    31     6     1    1
    32    27    21    1
    33     6     2    1
    34    17     7   ar
    35    17    11   ar
@<TRIPOS>MOLECULE
*****
 30 35 0 0 0
SMALL
GASTEIGER

@<TRIPOS>ATOM
      1 C         140.0323  144.9277  157.6327 C.3     1  UNL1        0.0118
      2 C         140.7733  144.0045  158.5540 C.3     1  UNL1        0.0009
      3 C         141.4789  143.3137  159.6831 C.3     1  UNL1        0.0044
      4 C         141.4648  144.2316  160.8694 C.3     1  UNL1        0.0224
      5 C         140.7505  145.4898  160.4734 C.3     1  UNL1        0.0044
      6 C         140.3231  145.3495  159.0425 C.3     1  UNL1        0.0009
      7 C         142.0605  143.9422  162.2153 C.ar    1  UNL1       -0.0194
      8 C         143.5285  144.1467  162.4455 C.ar    1  UNL1        0.0164
      9 C         144.1241  143.8573  163.7914 C.ar    1  UNL1        0.0985
     10 N         143.2516  143.3634  164.9071 N.ar    1  UNL1       -0.2439
     11 C         141.7836  143.1589  164.6770 C.ar    1  UNL1        0.0811
     12 C         140.9111  142.6650  165.7927 C.ar    1  UNL1        0.0214
     13 C         139.4431  142.4604  165.5626 C.ar    1  UNL1        0.0312
     14 C         138.8474  142.7499  164.2166 C.ar    1  UNL1        0.1402
     15 F         137.3794  142.5453  163.9864 F       1  UNL1       -0.2042
     16 C         139.7199  143.2438  163.1009 C.ar    1  UNL1        0.0308
     17 C         141.1880  143.4483  163.3311 C.ar    1  UNL1        0.0160
     18 C         139.4367  145.2171  156.2868 C.3     1  UNL1        0.1120
     19 C         139.3639  146.6295  155.7869 C.2     1  UNL1        0.3506
     20 N         138.7642  147.7938  156.5183 N.2     1  UNL1       -0.0350
     21 C         138.9077  149.0093  155.6512 C.2     1  UNL1        0.2326
     22 C         138.5005  150.4391  155.8518 C.2     1  UNL1        0.0612
     23 C         138.7815  151.4557  154.7853 C.2     1  UNL1        0.0577
     24 CL        138.3743  152.8853  154.9860 Cl      1  UNL1       -0.0824
     25 C         139.4698  151.0426  153.5181 C.2     1  UNL1       -0.0058
     26 C         139.8769  149.6130  153.3175 C.3     1  UNL1        0.1046
     27 C         139.5959  148.5963  154.3840 C.2     1  UNL1        0.2175
     28 N         139.8778  147.1254  154.4679 N.2     1  UNL1       -0.0389
     29 C         137.5847  144.2254  154.7582 C.3     1  UNL1        0.0006
     30 C         138.9139  144.0942  155.4408 C.3     1  UNL1        0.0124
@<TRIPOS>BOND
     1    29    30    1
     2    30    18    1
     3    18    19    1
     4    19    20    2
     5    20    21    1
     6    21    22    2
     7    22    23    1
     8    23    24    1
     9    23    25    2
    10    25    26    1
    11    26    27    1
    12    27    28    2
    13     1    18    1
    14     1     2    1
    15     2     3    1
    16     3     4    1
    17     4     7    1
    18     7     8   ar
    19     8     9   ar
    20     9    10   ar
    21    10    11   ar
    22    11    12   ar
    23    12    13   ar
    24    13    14   ar
    25    14    15    1
    26    14    16   ar
    27    16    17   ar
    28     4     5    1
    29     6     5    1
    30    28    19    1
    31     6     1    1
    32    27    21    1
    33     6     2    1
    34    17     7   ar
    35    17    11   ar
@<TRIPOS>MOLECULE
*****
 30 35 0 0 0
SMALL
GASTEIGER

@<TRIPOS>ATOM
      1 C         142.7473  138.4292  157.2066 C.3     1  UNL1        0.0118
      2 C         142.0192  137.2046  156.7371 C.3     1  UNL1        0.0009
      3 C         141.5557  135.9238  156.1088 C.3     1  UNL1        0.0044
      4 C         142.6688  135.3986  155.2515 C.3     1  UNL1        0.0224
      5 C         143.8204  136.3548  155.3500 C.3     1  UNL1        0.0044
      6 C         143.4189  137.4710  156.2681 C.3     1  UNL1        0.0009
      7 C         142.6362  134.1384  154.4385 C.ar    1  UNL1       -0.0194
      8 C         141.8554  134.0916  153.1587 C.ar    1  UNL1        0.0164
      9 C         141.8229  132.8314  152.3457 C.ar    1  UNL1        0.0985
     10 N         142.5711  131.6181  152.8127 N.ar    1  UNL1       -0.2439
     11 C         143.3520  131.6650  154.0925 C.ar    1  UNL1        0.0811
     12 C         144.1002  130.4517  154.5594 C.ar    1  UNL1        0.0214
     13 C         144.8811  130.4985  155.8393 C.ar    1  UNL1        0.0312
     14 C         144.9136  131.7587  156.6523 C.ar    1  UNL1        0.1402
     15 F         145.6945  131.8056  157.9321 F       1  UNL1       -0.2042
     16 C         144.1654  132.9720  156.1854 C.ar    1  UNL1        0.0308
     17 C         143.3845  132.9251  154.9054 C.ar    1  UNL1        0.0160
     18 C         142.7799  139.6893  158.0196 C.3     1  UNL1        0.1120
     19 C         143.0727  139.6263  159.4894 C.2     1  UNL1        0.3506
     20 N         142.4364  138.6924  160.4758 N.2     1  UNL1       -0.0350
     21 C         143.0237  138.9750  161.8269 C.2     1  UNL1        0.2326
     22 C         142.7776  138.3662  163.1756 C.2     1  UNL1        0.0612
     23 C         143.5308  138.8658  164.3727 C.2     1  UNL1        0.0577
     24 CL        143.2847  138.2570  165.7213 Cl      1  UNL1       -0.0824
     25 C         144.5300  139.9743  164.2212 C.2     1  UNL1       -0.0058
     26 C         144.7760  140.5831  162.8726 C.3     1  UNL1        0.1046
     27 C         144.0228  140.0835  161.6754 C.2     1  UNL1        0.2175
     28 N         144.0531  140.4859  160.2307 N.2     1  UNL1       -0.0389
     29 C         143.6032  141.6827  156.5709 C.3     1  UNL1        0.0006
     30 C         142.5198  141.0126  157.3628 C.3     1  UNL1        0.0124
@<TRIPOS>BOND
     1    29    30    1
     2    30    18    1
     3    18    19    1
     4    19    20    2
     5    20    21    1
     6    21    22    2
     7    22    23    1
     8    23    24    1
     9    23    25    2
    10    25    26    1
    11    26    27    1
    12    27    28    2
    13     1    18    1
    14     1     2    1
    15     2     3    1
    16     3     4    1
    17     4     7    1
    18     7     8   ar
    19     8     9   ar
    20     9    10   ar
    21    10    11   ar
    22    11    12   ar
    23    12    13   ar
    24    13    14   ar
    25    14    15    1
    26    14    16   ar
    27    16    17   ar
    28     4     5    1
    29     6     5    1
    30    28    19    1
    31     6     1    1
    32    27    21    1
    33     6     2    1
    34    17     7   ar
    35    17    11   ar
@<TRIPOS>MOLECULE
*****
 30 35 0 0 0
SMALL
GASTEIGER

@<TRIPOS>ATOM
      1 C         141.8550  138.5640  158.0026 C.3     1  UNL1        0.0118
      2 C         140.5775  138.6931  158.7781 C.3     1  UNL1        0.0009
      3 C         139.4605  139.0349  159.7191 C.3     1  UNL1        0.0044
      4 C         139.9609  140.0789  160.6728 C.3     1  UNL1        0.0224
      5 C         141.3872  140.3824  160.3212 C.3     1  UNL1        0.0044
      6 C         141.7683  139.5260  159.1503 C.3     1  UNL1        0.0009
      7 C         139.1733  140.7089  161.7832 C.ar    1  UNL1       -0.0194
      8 C         138.4609  142.0088  161.5536 C.ar    1  UNL1        0.0164
      9 C         137.6733  142.6387  162.6639 C.ar    1  UNL1        0.0985
     10 N         137.5982  141.9688  164.0039 N.ar    1  UNL1       -0.2439
     11 C         138.3106  140.6689  164.2335 C.ar    1  UNL1        0.0811
     12 C         138.2355  139.9990  165.5735 C.ar    1  UNL1        0.0214
     13 C         138.9480  138.6991  165.8032 C.ar    1  UNL1        0.0312
     14 C         139.7356  138.0691  164.6928 C.ar    1  UNL1        0.1402
     15 F         140.4480  136.7693  164.9224 F       1  UNL1       -0.2042
     16 C         139.8107  138.7391  163.3528 C.ar    1  UNL1        0.0308
     17 C         139.0982  140.0390  163.1232 C.ar    1  UNL1        0.0160
     18 C         142.6426  137.9341  156.8923 C.3     1  UNL1        0.1120
     19 C         142.5611  136.4543  156.6608 C.2     1  UNL1        0.3506
     20 N         141.6522  135.7629  155.6882 N.2     1  UNL1       -0.0350
     21 C         141.9036  134.2874  155.7876 C.2     1  UNL1        0.2326
     22 C         141.3009  133.1160  155.0701 C.2     1  UNL1        0.0612
     23 C         141.7623  131.7243  155.3866 C.2     1  UNL1        0.0577
     24 CL        141.1597  130.5530  154.6691 Cl      1  UNL1       -0.0824
     25 C         142.8265  131.5039  156.4205 C.2     1  UNL1       -0.0058
     26 C         143.4291  132.6752  157.1380 C.3     1  UNL1        0.1046
     27 C         142.9677  134.0670  156.8215 C.2     1  UNL1        0.2175
     28 N         143.3740  135.4063  157.3612 N.2     1  UNL1       -0.0389
     29 C         143.7336  138.3992  154.5807 C.3     1  UNL1        0.0006
     30 C         143.5118  138.7839  156.0134 C.3     1  UNL1        0.0124
@<TRIPOS>BOND
     1    29    30    1
     2    30    18    1
     3    18    19    1
     4    19    20    2
     5    20    21    1
     6    21    22    2
     7    22    23    1
     8    23    24    1
     9    23    25    2
    10    25    26    1
    11    26    27    1
    12    27    28    2
    13     1    18    1
    14     1     2    1
    15     2     3    1
    16     3     4    1
    17     4     7    1
    18     7     8   ar
    19     8     9   ar
    20     9    10   ar
    21    10    11   ar
    22    11    12   ar
    23    12    13   ar
    24    13    14   ar
    25    14    15    1
    26    14    16   ar
    27    16    17   ar
    28     4     5    1
    29     6     5    1
    30    28    19    1
    31     6     1    1
    32    27    21    1
    33     6     2    1
    34    17     7   ar
    35    17    11   ar
@<TRIPOS>MOLECULE
*****
 30 35 0 0 0
SMALL
GASTEIGER

@<TRIPOS>ATOM
      1 C         142.1882  137.9448  157.6610 C.3     1  UNL1        0.0118
      2 C         141.5108  136.9098  156.8125 C.3     1  UNL1        0.0009
      3 C         141.1264  135.7964  155.8837 C.3     1  UNL1        0.0044
      4 C         142.3855  135.2053  155.3224 C.3     1  UNL1        0.0224
      5 C         143.5482  135.9534  155.9043 C.3     1  UNL1        0.0044
      6 C         143.0077  137.0068  156.8252 C.3     1  UNL1        0.0009
      7 C         142.4676  134.0662  154.3499 C.ar    1  UNL1       -0.0194
      8 C         141.7854  134.1665  153.0179 C.ar    1  UNL1        0.0164
      9 C         141.8675  133.0274  152.0455 C.ar    1  UNL1        0.0985
     10 N         142.6319  131.7879  152.4052 N.ar    1  UNL1       -0.2439
     11 C         143.3141  131.6875  153.7372 C.ar    1  UNL1        0.0811
     12 C         144.0785  130.4480  154.0969 C.ar    1  UNL1        0.0214
     13 C         144.7607  130.3476  155.4290 C.ar    1  UNL1        0.0312
     14 C         144.6786  131.4868  156.4014 C.ar    1  UNL1        0.1402
     15 F         145.3608  131.3864  157.7335 F       1  UNL1       -0.2042
     16 C         143.9142  132.7263  156.0418 C.ar    1  UNL1        0.0308
     17 C         143.2320  132.8266  154.7096 C.ar    1  UNL1        0.0160
     18 C         142.1062  139.0839  158.6334 C.3     1  UNL1        0.1120
     19 C         141.5373  138.8611  160.0034 C.2     1  UNL1        0.3506
     20 N         140.4393  139.6586  160.6424 N.2     1  UNL1       -0.0350
     21 C         140.1901  139.0920  162.0088 C.2     1  UNL1        0.2326
     22 C         139.2254  139.4727  163.0926 C.2     1  UNL1        0.0612
     23 C         139.2048  138.7060  164.3817 C.2     1  UNL1        0.0577
     24 CL        138.2402  139.0868  165.4654 Cl      1  UNL1       -0.0824
     25 C         140.1488  137.5585  164.5869 C.2     1  UNL1       -0.0058
     26 C         141.1133  137.1777  163.5032 C.3     1  UNL1        0.1046
     27 C         141.1340  137.9444  162.2141 C.2     1  UNL1        0.2175
     28 N         141.9667  137.8018  160.9746 N.2     1  UNL1       -0.0389
     29 C         144.0043  140.8554  158.5367 C.3     1  UNL1        0.0006
     30 C         142.5930  140.4460  158.2359 C.3     1  UNL1        0.0124
@<TRIPOS>BOND
     1    29    30    1
     2    30    18    1
     3    18    19    1
     4    19    20    2
     5    20    21    1
     6    21    22    2
     7    22    23    1
     8    23    24    1
     9    23    25    2
    10    25    26    1
    11    26    27    1
    12    27    28    2
    13     1    18    1
    14     1     2    1
    15     2     3    1
    16     3     4    1
    17     4     7    1
    18     7     8   ar
    19     8     9   ar
    20     9    10   ar
    21    10    11   ar
    22    11    12   ar
    23    12    13   ar
    24    13    14   ar
    25    14    15    1
    26    14    16   ar
    27    16    17   ar
    28     4     5    1
    29     6     5    1
    30    28    19    1
    31     6     1    1
    32    27    21    1
    33     6     2    1
    34    17     7   ar
    35    17    11   ar
