@<TRIPOS>MOLECULE
*****
 34 37 0 0 0
SMALL
GASTEIGER

@<TRIPOS>ATOM
      1 N         144.6221  142.1035  163.4110 N.3     1  UNL1       -0.2685
      2 C         144.1186  143.0815  164.4309 C.3     1  UNL1        0.1035
      3 C         143.0296  144.0477  164.0698 C.3     1  UNL1        0.1470
      4 C         141.9405  145.0140  163.7087 C.3     1  UNL1        0.1035
      5 N         141.3550  145.0023  162.3278 N.3     1  UNL1       -0.2682
      6 C         141.8585  144.0243  161.3079 C.3     1  UNL1        0.1035
      7 C         142.9475  143.0580  161.6690 C.3     1  UNL1        0.1470
      8 C         144.0365  142.0918  162.0301 C.3     1  UNL1        0.1035
      9 O         142.4440  144.0360  162.6888 O.3     1  UNL1       -0.3530
     10 C         145.7111  141.1372  163.7721 C.3     1  UNL1        0.0737
     11 C         145.3648  139.8068  164.3720 C.3     1  UNL1        0.0362
     12 C         144.2428  138.9940  163.7970 C.3     1  UNL1        0.0929
     13 N         143.0503  138.6578  164.6425 N.3     1  UNL1       -0.1793
     14 H         142.2901  138.4296  164.0019 H       1  UNL1        0.1488
     15 S         142.5108  139.6662  165.6130 S.O2    1  UNL1        0.0602
     16 O         143.2452  138.9848  166.7293 O.2     1  UNL1       -0.1530
     17 O         141.7764  140.3477  164.4966 O.2     1  UNL1       -0.1530
     18 C         140.8922  142.6916  168.5245 C.ar    1  UNL1        0.0685
     19 C         140.5291  142.7798  167.0718 C.ar    1  UNL1        0.0116
     20 C         141.0686  141.7714  166.1013 C.ar    1  UNL1        0.0206
     21 C         141.9712  140.6748  166.5835 C.ar    1  UNL1        0.1220
     22 C         142.3343  140.5865  168.0362 C.ar    1  UNL1        0.0206
     23 C         141.7948  141.5950  169.0067 C.ar    1  UNL1        0.0116
     24 N         139.8131  144.7086  170.4655 N.1     1  UNL1       -0.1908
     25 C         140.3526  143.7001  169.4950 C.1     1  UNL1        0.1004
     26 C         140.2660  145.9685  161.9667 C.3     1  UNL1        0.0770
     27 C         138.8498  145.6894  162.3751 C.3     1  UNL1        0.0459
     28 C         138.4322  144.2923  162.7267 C.ar    1  UNL1        0.0067
     29 C         138.2317  143.2744  161.6433 C.ar    1  UNL1       -0.0020
     30 C         137.8140  141.8773  161.9949 C.ar    1  UNL1       -0.0002
     31 C         137.5968  141.4981  163.4298 C.ar    1  UNL1        0.0023
     32 C         137.7972  142.5161  164.5132 C.ar    1  UNL1        0.0293
     33 C         138.2149  143.9131  164.1616 C.ar    1  UNL1        0.1362
     34 F         138.4154  144.9310  165.2449 F       1  UNL1       -0.2045
@<TRIPOS>BOND
     1    24    25    3
     2    25    18    1
     3    18    19   ar
     4    19    20   ar
     5    20    21   ar
     6    21    15    1
     7    15    16    2
     8    15    17    2
     9    15    13    1
    10    13    12    1
    11    12    11    1
    12    11    10    1
    13    10     1    1
    14     1     2    1
    15     2     3    1
    16     3     4    1
    17     4     5    1
    18     5    26    1
    19    26    27    1
    20    27    28    1
    21    28    29   ar
    22    29    30   ar
    23    30    31   ar
    24    31    32   ar
    25    32    33   ar
    26    33    34    1
    27     5     6    1
    28     6     7    1
    29     7     8    1
    30     7     9    1
    31    21    22   ar
    32    22    23   ar
    33    23    18   ar
    34     8     1    1
    35     9     3    1
    36    33    28   ar
    37    13    14    1
@<TRIPOS>MOLECULE
*****
 34 37 0 0 0
SMALL
GASTEIGER

@<TRIPOS>ATOM
      1 N         142.8749  141.5259  160.8319 N.3     1  UNL1       -0.2685
      2 C         141.3874  141.7156  160.7948 C.3     1  UNL1        0.1035
      3 C         140.6004  141.7242  162.0717 C.3     1  UNL1        0.1470
      4 C         139.8133  141.7329  163.3486 C.3     1  UNL1        0.1035
      5 N         140.5137  141.5519  164.6626 N.3     1  UNL1       -0.2682
      6 C         142.0013  141.3623  164.6997 C.3     1  UNL1        0.1035
      7 C         142.7883  141.3536  163.4228 C.3     1  UNL1        0.1470
      8 C         143.5753  141.3449  162.1460 C.3     1  UNL1        0.1035
      9 O         141.3008  141.5432  163.3857 O.3     1  UNL1       -0.3530
     10 C         143.6620  141.5172  159.5550 C.3     1  UNL1        0.0737
     11 C         143.9033  140.2256  158.8315 C.3     1  UNL1        0.0362
     12 C         142.9226  139.0981  158.9623 C.3     1  UNL1        0.0929
     13 N         143.0963  138.0749  160.0454 N.3     1  UNL1       -0.1793
     14 H         143.0436  137.1601  159.5974 H       1  UNL1        0.1488
     15 S         142.1475  138.0437  161.2067 S.O2    1  UNL1        0.0602
     16 O         143.3024  137.8558  162.1452 O.2     1  UNL1       -0.1530
     17 O         140.9926  138.2316  160.2682 O.2     1  UNL1       -0.1530
     18 C         139.3009  137.9500  164.6906 C.ar    1  UNL1        0.0685
     19 C         140.7765  137.8164  164.9240 C.ar    1  UNL1        0.0116
     20 C         141.7254  137.8477  163.7628 C.ar    1  UNL1        0.0206
     21 C         141.1986  138.0125  162.3681 C.ar    1  UNL1        0.1220
     22 C         139.7229  138.1460  162.1346 C.ar    1  UNL1        0.0206
     23 C         138.7740  138.1148  163.2959 C.ar    1  UNL1        0.0116
     24 N         137.4031  137.8875  167.0132 N.1     1  UNL1       -0.1908
     25 C         138.3520  137.9188  165.8520 C.1     1  UNL1        0.1004
     26 C         139.7267  141.5606  165.9395 C.3     1  UNL1        0.0770
     27 C         140.2435  140.8312  167.1441 C.3     1  UNL1        0.0459
     28 C         141.0564  141.5616  168.1715 C.ar    1  UNL1        0.0067
     29 C         140.4681  142.7346  168.8980 C.ar    1  UNL1       -0.0020
     30 C         141.2810  143.4650  169.9255 C.ar    1  UNL1       -0.0002
     31 C         142.6823  143.0224  170.2264 C.ar    1  UNL1        0.0023
     32 C         143.2706  141.8493  169.4999 C.ar    1  UNL1        0.0293
     33 C         142.4577  141.1189  168.4724 C.ar    1  UNL1        0.1362
     34 F         143.0460  139.9459  167.7459 F       1  UNL1       -0.2045
@<TRIPOS>BOND
     1    24    25    3
     2    25    18    1
     3    18    19   ar
     4    19    20   ar
     5    20    21   ar
     6    21    15    1
     7    15    16    2
     8    15    17    2
     9    15    13    1
    10    13    12    1
    11    12    11    1
    12    11    10    1
    13    10     1    1
    14     1     2    1
    15     2     3    1
    16     3     4    1
    17     4     5    1
    18     5    26    1
    19    26    27    1
    20    27    28    1
    21    28    29   ar
    22    29    30   ar
    23    30    31   ar
    24    31    32   ar
    25    32    33   ar
    26    33    34    1
    27     5     6    1
    28     6     7    1
    29     7     8    1
    30     7     9    1
    31    21    22   ar
    32    22    23   ar
    33    23    18   ar
    34     8     1    1
    35     9     3    1
    36    33    28   ar
    37    13    14    1
@<TRIPOS>MOLECULE
*****
 34 37 0 0 0
SMALL
GASTEIGER

@<TRIPOS>ATOM
      1 N         139.6971  142.3274  159.6932 N.3     1  UNL1       -0.2685
      2 C         141.0950  141.8217  159.4931 C.3     1  UNL1        0.1035
      3 C         142.1989  142.2929  160.3926 C.3     1  UNL1        0.1470
      4 C         143.3030  142.7641  161.2921 C.3     1  UNL1        0.1035
      5 N         143.0091  143.7410  162.3918 N.3     1  UNL1       -0.2682
      6 C         141.6111  144.2467  162.5919 C.3     1  UNL1        0.1035
      7 C         140.5071  143.7755  161.6924 C.3     1  UNL1        0.1470
      8 C         139.4032  143.3043  160.7929 C.3     1  UNL1        0.1035
      9 O         141.9050  143.2698  161.4923 O.3     1  UNL1       -0.3530
     10 C         138.5930  141.8562  158.7937 C.3     1  UNL1        0.0737
     11 C         138.0580  140.4615  158.9302 C.3     1  UNL1        0.0362
     12 C         137.9285  139.8375  160.2881 C.3     1  UNL1        0.0929
     13 N         137.2577  140.5903  161.3986 N.3     1  UNL1       -0.1793
     14 H         137.2546  141.5736  161.1278 H       1  UNL1        0.1488
     15 S         137.8131  140.5262  162.7905 S.O2    1  UNL1        0.0602
     16 O         136.9705  141.7041  163.1810 O.2     1  UNL1       -0.1530
     17 O         138.6558  139.3483  162.4000 O.2     1  UNL1       -0.1530
     18 C         139.4795  140.3340  166.9662 C.ar    1  UNL1        0.0685
     19 C         138.8032  139.1339  166.3726 C.ar    1  UNL1        0.0116
     20 C         138.2477  139.1979  164.9807 C.ar    1  UNL1        0.0206
     21 C         138.3686  140.4621  164.1824 C.ar    1  UNL1        0.1220
     22 C         139.0449  141.6622  164.7761 C.ar    1  UNL1        0.0206
     23 C         139.6004  141.5981  166.1679 C.ar    1  UNL1        0.0116
     24 N         140.5904  140.2058  169.7500 N.1     1  UNL1       -0.1908
     25 C         140.0350  140.2699  168.3581 C.1     1  UNL1        0.1004
     26 C         144.1130  144.2122  163.2913 C.3     1  UNL1        0.0770
     27 C         144.3024  143.5824  164.6395 C.3     1  UNL1        0.0459
     28 C         144.1975  142.0940  164.7934 C.ar    1  UNL1        0.0067
     29 C         143.1129  141.5027  165.6443 C.ar    1  UNL1       -0.0020
     30 C         143.0079  140.0143  165.7982 C.ar    1  UNL1       -0.0002
     31 C         143.9874  139.1173  165.1013 C.ar    1  UNL1        0.0023
     32 C         145.0721  139.7086  164.2504 C.ar    1  UNL1        0.0293
     33 C         145.1771  141.1970  164.0965 C.ar    1  UNL1        0.1362
     34 F         146.2616  141.7883  163.2456 F       1  UNL1       -0.2045
@<TRIPOS>BOND
     1    24    25    3
     2    25    18    1
     3    18    19   ar
     4    19    20   ar
     5    20    21   ar
     6    21    15    1
     7    15    16    2
     8    15    17    2
     9    15    13    1
    10    13    12    1
    11    12    11    1
    12    11    10    1
    13    10     1    1
    14     1     2    1
    15     2     3    1
    16     3     4    1
    17     4     5    1
    18     5    26    1
    19    26    27    1
    20    27    28    1
    21    28    29   ar
    22    29    30   ar
    23    30    31   ar
    24    31    32   ar
    25    32    33   ar
    26    33    34    1
    27     5     6    1
    28     6     7    1
    29     7     8    1
    30     7     9    1
    31    21    22   ar
    32    22    23   ar
    33    23    18   ar
    34     8     1    1
    35     9     3    1
    36    33    28   ar
    37    13    14    1
@<TRIPOS>MOLECULE
*****
 34 37 0 0 0
SMALL
GASTEIGER

@<TRIPOS>ATOM
      1 N         140.2373  139.6296  159.5066 N.3     1  UNL1       -0.2685
      2 C         140.3339  140.9079  160.2853 C.3     1  UNL1        0.1035
      3 C         139.8470  140.9610  161.7031 C.3     1  UNL1        0.1470
      4 C         139.3600  141.0142  163.1209 C.3     1  UNL1        0.1035
      5 N         138.7764  139.7890  163.7599 N.3     1  UNL1       -0.2682
      6 C         138.6798  138.5106  162.9810 C.3     1  UNL1        0.1035
      7 C         139.1667  138.4575  161.5633 C.3     1  UNL1        0.1470
      8 C         139.6537  138.4044  160.1456 C.3     1  UNL1        0.1035
      9 O         139.2634  139.7358  162.3421 O.3     1  UNL1       -0.3530
     10 C         140.7242  139.5764  158.0888 C.3     1  UNL1        0.0737
     11 C         141.7284  138.5402  157.6790 C.3     1  UNL1        0.0362
     12 C         142.6935  137.9910  158.6875 C.3     1  UNL1        0.0929
     13 N         143.5568  138.9233  159.4846 N.3     1  UNL1       -0.1793
     14 H         144.5246  138.6948  159.2578 H       1  UNL1        0.1488
     15 S         143.4559  138.9438  160.9811 S.O2    1  UNL1        0.0602
     16 O         143.8644  140.3870  160.9889 O.2     1  UNL1       -0.1530
     17 O         143.0475  137.5005  160.9733 O.2     1  UNL1       -0.1530
     18 C         143.1533  139.0049  165.4705 C.ar    1  UNL1        0.0685
     19 C         144.1852  139.8440  164.7768 C.ar    1  UNL1        0.0116
     20 C         144.2861  139.8236  163.2804 C.ar    1  UNL1        0.0206
     21 C         143.3551  138.9642  162.4776 C.ar    1  UNL1        0.1220
     22 C         142.3232  138.1250  163.1712 C.ar    1  UNL1        0.0206
     23 C         142.2223  138.1454  164.6677 C.ar    1  UNL1        0.0116
     24 N         142.9516  139.0456  168.4634 N.1     1  UNL1       -0.1908
     25 C         143.0525  139.0253  166.9670 C.1     1  UNL1        0.1004
     26 C         138.2894  139.8421  165.1776 C.3     1  UNL1        0.0770
     27 C         139.1614  139.3386  166.2895 C.3     1  UNL1        0.0459
     28 C         139.5455  140.2535  167.4144 C.ar    1  UNL1        0.0067
     29 C         139.0332  139.9945  168.8001 C.ar    1  UNL1       -0.0020
     30 C         139.4173  140.9094  169.9250 C.ar    1  UNL1       -0.0002
     31 C         140.3139  142.0833  169.6641 C.ar    1  UNL1        0.0023
     32 C         140.8262  142.3424  168.2783 C.ar    1  UNL1        0.0293
     33 C         140.4421  141.4275  167.1535 C.ar    1  UNL1        0.1362
     34 F         140.9544  141.6865  165.7677 F       1  UNL1       -0.2045
@<TRIPOS>BOND
     1    24    25    3
     2    25    18    1
     3    18    19   ar
     4    19    20   ar
     5    20    21   ar
     6    21    15    1
     7    15    16    2
     8    15    17    2
     9    15    13    1
    10    13    12    1
    11    12    11    1
    12    11    10    1
    13    10     1    1
    14     1     2    1
    15     2     3    1
    16     3     4    1
    17     4     5    1
    18     5    26    1
    19    26    27    1
    20    27    28    1
    21    28    29   ar
    22    29    30   ar
    23    30    31   ar
    24    31    32   ar
    25    32    33   ar
    26    33    34    1
    27     5     6    1
    28     6     7    1
    29     7     8    1
    30     7     9    1
    31    21    22   ar
    32    22    23   ar
    33    23    18   ar
    34     8     1    1
    35     9     3    1
    36    33    28   ar
    37    13    14    1
@<TRIPOS>MOLECULE
*****
 34 37 0 0 0
SMALL
GASTEIGER

@<TRIPOS>ATOM
      1 N         143.5464  140.8642  161.0098 N.3     1  UNL1       -0.2685
      2 C         144.3089  139.7703  161.6968 C.3     1  UNL1        0.1035
      3 C         144.0630  139.4821  163.1482 C.3     1  UNL1        0.1470
      4 C         143.8171  139.1939  164.5996 C.3     1  UNL1        0.1035
      5 N         142.8088  139.9996  165.3639 N.3     1  UNL1       -0.2682
      6 C         142.0463  141.0935  164.6767 C.3     1  UNL1        0.1035
      7 C         142.2922  141.3817  163.2254 C.3     1  UNL1        0.1470
      8 C         142.5381  141.6698  161.7740 C.3     1  UNL1        0.1035
      9 O         143.0546  140.2878  163.9125 O.3     1  UNL1       -0.3530
     10 C         143.7923  141.1524  159.5583 C.3     1  UNL1        0.0737
     11 C         143.1012  140.3388  158.5046 C.3     1  UNL1        0.0362
     12 C         141.7624  139.7250  158.7889 C.3     1  UNL1        0.0929
     13 N         141.6729  138.4533  159.5793 N.3     1  UNL1       -0.1793
     14 H         141.1949  137.7727  158.9889 H       1  UNL1        0.1488
     15 S         140.9733  138.4426  160.9061 S.O2    1  UNL1        0.0602
     16 O         141.8598  137.3228  161.3644 O.2     1  UNL1       -0.1530
     17 O         140.0869  139.5625  160.4478 O.2     1  UNL1       -0.1530
     18 C         138.8745  138.4106  164.8866 C.ar    1  UNL1        0.0685
     19 C         138.4068  139.3322  163.7995 C.ar    1  UNL1        0.0116
     20 C         139.1063  139.3429  162.4727 C.ar    1  UNL1        0.0206
     21 C         140.2737  138.4320  162.2330 C.ar    1  UNL1        0.1220
     22 C         140.7415  137.5104  163.3201 C.ar    1  UNL1        0.0206
     23 C         140.0419  137.4996  164.6469 C.ar    1  UNL1        0.0116
     24 N         137.4753  138.3893  167.5402 N.1     1  UNL1       -0.1908
     25 C         138.1749  138.3999  166.2134 C.1     1  UNL1        0.1004
     26 C         142.5629  139.7114  166.8152 C.3     1  UNL1        0.0770
     27 C         141.1843  139.8627  167.3868 C.3     1  UNL1        0.0459
     28 C         140.9152  140.9067  168.4296 C.ar    1  UNL1        0.0067
     29 C         140.6409  142.3232  168.0194 C.ar    1  UNL1       -0.0020
     30 C         140.3718  143.3674  169.0623 C.ar    1  UNL1       -0.0002
     31 C         140.3769  142.9949  170.5153 C.ar    1  UNL1        0.0023
     32 C         140.6512  141.5784  170.9255 C.ar    1  UNL1        0.0293
     33 C         140.9203  140.5343  169.8827 C.ar    1  UNL1        0.1362
     34 F         141.1945  139.1178  170.2929 F       1  UNL1       -0.2045
@<TRIPOS>BOND
     1    24    25    3
     2    25    18    1
     3    18    19   ar
     4    19    20   ar
     5    20    21   ar
     6    21    15    1
     7    15    16    2
     8    15    17    2
     9    15    13    1
    10    13    12    1
    11    12    11    1
    12    11    10    1
    13    10     1    1
    14     1     2    1
    15     2     3    1
    16     3     4    1
    17     4     5    1
    18     5    26    1
    19    26    27    1
    20    27    28    1
    21    28    29   ar
    22    29    30   ar
    23    30    31   ar
    24    31    32   ar
    25    32    33   ar
    26    33    34    1
    27     5     6    1
    28     6     7    1
    29     7     8    1
    30     7     9    1
    31    21    22   ar
    32    22    23   ar
    33    23    18   ar
    34     8     1    1
    35     9     3    1
    36    33    28   ar
    37    13    14    1
@<TRIPOS>MOLECULE
*****
 34 37 0 0 0
SMALL
GASTEIGER

@<TRIPOS>ATOM
      1 N         142.2088  143.1548  161.2227 N.3     1  UNL1       -0.2685
      2 C         141.6484  141.7637  161.2501 C.3     1  UNL1        0.1035
      3 C         141.7096  140.9552  162.5120 C.3     1  UNL1        0.1470
      4 C         141.7708  140.1466  163.7740 C.3     1  UNL1        0.1035
      5 N         142.3925  140.7292  165.0085 N.3     1  UNL1       -0.2682
      6 C         142.9530  142.1203  164.9811 C.3     1  UNL1        0.1035
      7 C         142.8918  142.9288  163.7192 C.3     1  UNL1        0.1470
      8 C         142.8305  143.7373  162.4572 C.3     1  UNL1        0.1035
      9 O         142.3313  141.5378  163.7465 O.3     1  UNL1       -0.3530
     10 C         142.1476  143.9633  159.9607 C.3     1  UNL1        0.0737
     11 C         141.4175  145.2735  159.9441 C.3     1  UNL1        0.0362
     12 C         139.9336  145.3081  160.1612 C.3     1  UNL1        0.0929
     13 N         139.3820  145.4811  161.5453 N.3     1  UNL1       -0.1793
     14 H         140.0475  146.0602  162.0573 H       1  UNL1        0.1488
     15 S         139.1077  144.2787  162.3990 S.O2    1  UNL1        0.0602
     16 O         139.6807  144.9920  163.5876 O.2     1  UNL1       -0.1530
     17 O         138.5347  143.5654  161.2104 O.2     1  UNL1       -0.1530
     18 C         138.2848  140.6713  164.9602 C.ar    1  UNL1        0.0685
     19 C         139.0197  141.8465  165.5337 C.ar    1  UNL1        0.0116
     20 C         139.2940  143.0489  164.6800 C.ar    1  UNL1        0.0206
     21 C         138.8334  143.0762  163.2528 C.ar    1  UNL1        0.1220
     22 C         138.0986  141.9010  162.6792 C.ar    1  UNL1        0.0206
     23 C         137.8243  140.6986  163.5329 C.ar    1  UNL1        0.0116
     24 N         137.7362  138.2664  166.6676 N.1     1  UNL1       -0.1908
     25 C         138.0105  139.4688  165.8139 C.1     1  UNL1        0.1004
     26 C         142.4538  139.9207  166.2705 C.3     1  UNL1        0.0770
     27 C         142.8739  140.5684  167.5566 C.3     1  UNL1        0.0459
     28 C         141.8450  141.1869  168.4559 C.ar    1  UNL1        0.0067
     29 C         141.4057  142.6032  168.2302 C.ar    1  UNL1       -0.0020
     30 C         140.3768  143.2218  169.1295 C.ar    1  UNL1       -0.0002
     31 C         139.7872  142.4239  170.2546 C.ar    1  UNL1        0.0023
     32 C         140.2265  141.0075  170.4803 C.ar    1  UNL1        0.0293
     33 C         141.2553  140.3890  169.5810 C.ar    1  UNL1        0.1362
     34 F         141.6946  138.9727  169.8067 F       1  UNL1       -0.2045
@<TRIPOS>BOND
     1    24    25    3
     2    25    18    1
     3    18    19   ar
     4    19    20   ar
     5    20    21   ar
     6    21    15    1
     7    15    16    2
     8    15    17    2
     9    15    13    1
    10    13    12    1
    11    12    11    1
    12    11    10    1
    13    10     1    1
    14     1     2    1
    15     2     3    1
    16     3     4    1
    17     4     5    1
    18     5    26    1
    19    26    27    1
    20    27    28    1
    21    28    29   ar
    22    29    30   ar
    23    30    31   ar
    24    31    32   ar
    25    32    33   ar
    26    33    34    1
    27     5     6    1
    28     6     7    1
    29     7     8    1
    30     7     9    1
    31    21    22   ar
    32    22    23   ar
    33    23    18   ar
    34     8     1    1
    35     9     3    1
    36    33    28   ar
    37    13    14    1
@<TRIPOS>MOLECULE
*****
 34 37 0 0 0
SMALL
GASTEIGER

@<TRIPOS>ATOM
      1 N         141.8220  139.9122  159.5383 N.3     1  UNL1       -0.2685
      2 C         140.4392  140.3878  159.2042 C.3     1  UNL1        0.1035
      3 C         140.0359  141.7987  159.5151 C.3     1  UNL1        0.1470
      4 C         139.6326  143.2097  159.8259 C.3     1  UNL1        0.1035
      5 N         140.6121  144.1449  160.4709 N.3     1  UNL1       -0.2682
      6 C         141.9949  143.6692  160.8050 C.3     1  UNL1        0.1035
      7 C         142.3982  142.2583  160.4941 C.3     1  UNL1        0.1470
      8 C         142.8015  140.8474  160.1832 C.3     1  UNL1        0.1035
      9 O         141.0154  142.7340  160.1600 O.3     1  UNL1       -0.3530
     10 C         142.2253  138.5012  159.2274 C.3     1  UNL1        0.0737
     11 C         142.9213  137.6738  160.2670 C.3     1  UNL1        0.0362
     12 C         142.4004  137.6429  161.6734 C.3     1  UNL1        0.0929
     13 N         141.0075  138.1153  161.9678 N.3     1  UNL1       -0.1793
     14 H         140.8348  138.9180  161.3626 H       1  UNL1        0.1488
     15 S         140.6361  138.5342  163.3593 S.O2    1  UNL1        0.0602
     16 O         140.1829  139.8655  162.8376 O.2     1  UNL1       -0.1530
     17 O         141.0894  137.2030  163.8811 O.2     1  UNL1       -0.1530
     18 C         139.5218  139.7909  167.5341 C.ar    1  UNL1        0.0685
     19 C         140.9296  139.9689  167.0479 C.ar    1  UNL1        0.0116
     20 C         141.3011  139.5500  165.6563 C.ar    1  UNL1        0.0206
     21 C         140.2647  138.9531  164.7510 C.ar    1  UNL1        0.1220
     22 C         138.8569  138.7751  165.2372 C.ar    1  UNL1        0.0206
     23 C         138.4855  139.1939  166.6288 C.ar    1  UNL1        0.0116
     24 N         138.7790  140.6287  170.3174 N.1     1  UNL1       -0.1908
     25 C         139.1504  140.2098  168.9258 C.1     1  UNL1        0.1004
     26 C         140.2088  145.5558  160.7817 C.3     1  UNL1        0.0770
     27 C         139.6848  145.9034  162.1436 C.3     1  UNL1        0.0459
     28 C         139.4650  144.8231  163.1608 C.ar    1  UNL1        0.0067
     29 C         138.1638  144.0777  163.1940 C.ar    1  UNL1       -0.0020
     30 C         137.9440  142.9974  164.2113 C.ar    1  UNL1       -0.0002
     31 C         139.0255  142.6625  165.1952 C.ar    1  UNL1        0.0023
     32 C         140.3268  143.4079  165.1620 C.ar    1  UNL1        0.0293
     33 C         140.5465  144.4882  164.1448 C.ar    1  UNL1        0.1362
     34 F         141.8478  145.2335  164.1116 F       1  UNL1       -0.2045
@<TRIPOS>BOND
     1    24    25    3
     2    25    18    1
     3    18    19   ar
     4    19    20   ar
     5    20    21   ar
     6    21    15    1
     7    15    16    2
     8    15    17    2
     9    15    13    1
    10    13    12    1
    11    12    11    1
    12    11    10    1
    13    10     1    1
    14     1     2    1
    15     2     3    1
    16     3     4    1
    17     4     5    1
    18     5    26    1
    19    26    27    1
    20    27    28    1
    21    28    29   ar
    22    29    30   ar
    23    30    31   ar
    24    31    32   ar
    25    32    33   ar
    26    33    34    1
    27     5     6    1
    28     6     7    1
    29     7     8    1
    30     7     9    1
    31    21    22   ar
    32    22    23   ar
    33    23    18   ar
    34     8     1    1
    35     9     3    1
    36    33    28   ar
    37    13    14    1
@<TRIPOS>MOLECULE
*****
 34 37 0 0 0
SMALL
GASTEIGER

@<TRIPOS>ATOM
      1 N         141.7027  139.8910  159.5215 N.3     1  UNL1       -0.2685
      2 C         142.7408  140.8365  160.0492 C.3     1  UNL1        0.1035
      3 C         142.3689  142.2527  160.3750 C.3     1  UNL1        0.1470
      4 C         141.9971  143.6689  160.7009 C.3     1  UNL1        0.1035
      5 N         140.5873  144.1396  160.4991 N.3     1  UNL1       -0.2682
      6 C         139.5492  143.1940  159.9714 C.3     1  UNL1        0.1035
      7 C         139.9210  141.7778  159.6456 C.3     1  UNL1        0.1470
      8 C         140.2928  140.3617  159.3197 C.3     1  UNL1        0.1035
      9 O         140.9591  142.7233  160.1732 O.3     1  UNL1       -0.3530
     10 C         142.0745  138.4748  159.1956 C.3     1  UNL1        0.0737
     11 C         142.7775  137.6301  160.2164 C.3     1  UNL1        0.0362
     12 C         142.3988  137.7328  161.6643 C.3     1  UNL1        0.0929
     13 N         140.9547  137.8366  162.0562 N.3     1  UNL1       -0.1793
     14 H         140.5154  138.4769  161.3948 H       1  UNL1        0.1488
     15 S         140.5827  138.3105  163.4299 S.O2    1  UNL1        0.0602
     16 O         139.2580  137.6170  163.3103 O.2     1  UNL1       -0.1530
     17 O         141.9073  139.0039  163.5494 O.2     1  UNL1       -0.1530
     18 C         139.4668  139.7322  167.5510 C.ar    1  UNL1        0.0685
     19 C         138.4392  139.0689  166.6826 C.ar    1  UNL1        0.0116
     20 C         138.8111  138.5950  165.3089 C.ar    1  UNL1        0.0206
     21 C         140.2107  138.7844  164.8036 C.ar    1  UNL1        0.1220
     22 C         141.2383  139.4476  165.6720 C.ar    1  UNL1        0.0206
     23 C         140.8663  139.9215  167.0457 C.ar    1  UNL1        0.0116
     24 N         138.7228  140.6800  170.2984 N.1     1  UNL1       -0.1908
     25 C         139.0948  140.2061  168.9247 C.1     1  UNL1        0.1004
     26 C         140.2154  145.5557  160.8250 C.3     1  UNL1        0.0770
     27 C         139.6111  145.8847  162.1579 C.3     1  UNL1        0.0459
     28 C         139.4175  144.8048  163.1807 C.ar    1  UNL1        0.0067
     29 C         138.1115  144.0712  163.2587 C.ar    1  UNL1       -0.0020
     30 C         137.9177  142.9912  164.2815 C.ar    1  UNL1       -0.0002
     31 C         139.0300  142.6449  165.2264 C.ar    1  UNL1        0.0023
     32 C         140.3361  143.3786  165.1484 C.ar    1  UNL1        0.0293
     33 C         140.5298  144.4585  164.1256 C.ar    1  UNL1        0.1362
     34 F         141.8358  145.1921  164.0477 F       1  UNL1       -0.2045
@<TRIPOS>BOND
     1    24    25    3
     2    25    18    1
     3    18    19   ar
     4    19    20   ar
     5    20    21   ar
     6    21    15    1
     7    15    16    2
     8    15    17    2
     9    15    13    1
    10    13    12    1
    11    12    11    1
    12    11    10    1
    13    10     1    1
    14     1     2    1
    15     2     3    1
    16     3     4    1
    17     4     5    1
    18     5    26    1
    19    26    27    1
    20    27    28    1
    21    28    29   ar
    22    29    30   ar
    23    30    31   ar
    24    31    32   ar
    25    32    33   ar
    26    33    34    1
    27     5     6    1
    28     6     7    1
    29     7     8    1
    30     7     9    1
    31    21    22   ar
    32    22    23   ar
    33    23    18   ar
    34     8     1    1
    35     9     3    1
    36    33    28   ar
    37    13    14    1
@<TRIPOS>MOLECULE
*****
 34 37 0 0 0
SMALL
GASTEIGER

@<TRIPOS>ATOM
      1 N         143.2466  139.2135  159.3141 N.3     1  UNL1       -0.2685
      2 C         143.5255  140.6755  159.1278 C.3     1  UNL1        0.1035
      3 C         144.0592  141.4886  160.2696 C.3     1  UNL1        0.1470
      4 C         144.5930  142.3018  161.4115 C.3     1  UNL1        0.1035
      5 N         144.8478  141.6530  162.7397 N.3     1  UNL1       -0.2682
      6 C         144.5688  140.1909  162.9260 C.3     1  UNL1        0.1035
      7 C         144.0351  139.3778  161.7842 C.3     1  UNL1        0.1470
      8 C         143.5014  138.5646  160.6423 C.3     1  UNL1        0.1035
      9 O         144.3140  140.8398  161.5978 O.3     1  UNL1       -0.3530
     10 C         142.7128  138.4002  158.1722 C.3     1  UNL1        0.0737
     11 C         141.2412  138.3896  157.8825 C.3     1  UNL1        0.0362
     12 C         140.2542  138.4475  159.0106 C.3     1  UNL1        0.0929
     13 N         140.0293  139.7360  159.7450 N.3     1  UNL1       -0.1793
     14 H         140.8280  140.3358  159.5385 H       1  UNL1        0.1488
     15 S         139.8658  139.7306  161.2360 S.O2    1  UNL1        0.0602
     16 O         139.0835  138.4540  161.1456 O.2     1  UNL1       -0.1530
     17 O         140.6481  141.0072  161.3264 O.2     1  UNL1       -0.1530
     18 C         139.3752  139.7147  165.7091 C.ar    1  UNL1        0.0685
     19 C         138.2960  140.2864  164.8383 C.ar    1  UNL1        0.0116
     20 C         138.4595  140.2918  163.3473 C.ar    1  UNL1        0.0206
     21 C         139.7022  139.7253  162.7271 C.ar    1  UNL1        0.1220
     22 C         140.7815  139.1536  163.5979 C.ar    1  UNL1        0.0206
     23 C         140.6180  139.1483  165.0889 C.ar    1  UNL1        0.0116
     24 N         139.0481  139.7042  168.6912 N.1     1  UNL1       -0.1908
     25 C         139.2116  139.7094  167.2002 C.1     1  UNL1        0.1004
     26 C         145.3815  142.4661  163.8816 C.3     1  UNL1        0.0770
     27 C         144.4559  142.9377  164.9637 C.3     1  UNL1        0.0459
     28 C         143.0908  143.4506  164.6121 C.ar    1  UNL1        0.0067
     29 C         141.8724  142.6659  164.9989 C.ar    1  UNL1       -0.0020
     30 C         140.5072  143.1788  164.6474 C.ar    1  UNL1       -0.0002
     31 C         140.3606  144.4762  163.9091 C.ar    1  UNL1        0.0023
     32 C         141.5792  145.2609  163.5223 C.ar    1  UNL1        0.0293
     33 C         142.9442  144.7481  163.8738 C.ar    1  UNL1        0.1362
     34 F         144.1627  145.5327  163.4871 F       1  UNL1       -0.2045
@<TRIPOS>BOND
     1    24    25    3
     2    25    18    1
     3    18    19   ar
     4    19    20   ar
     5    20    21   ar
     6    21    15    1
     7    15    16    2
     8    15    17    2
     9    15    13    1
    10    13    12    1
    11    12    11    1
    12    11    10    1
    13    10     1    1
    14     1     2    1
    15     2     3    1
    16     3     4    1
    17     4     5    1
    18     5    26    1
    19    26    27    1
    20    27    28    1
    21    28    29   ar
    22    29    30   ar
    23    30    31   ar
    24    31    32   ar
    25    32    33   ar
    26    33    34    1
    27     5     6    1
    28     6     7    1
    29     7     8    1
    30     7     9    1
    31    21    22   ar
    32    22    23   ar
    33    23    18   ar
    34     8     1    1
    35     9     3    1
    36    33    28   ar
    37    13    14    1
