@<TRIPOS>MOLECULE
*****
 26 30 0 0 0
SMALL
GASTEIGER

@<TRIPOS>ATOM
      1 N         144.1395  142.8853  169.6904 N.pl3   1  UNL1       -0.3133
      2 C         142.7939  142.2714  169.9397 C.2     1  UNL1        0.2770
      3 N         141.9758  141.5055  168.9426 N.2     1  UNL1       -0.2204
      4 C         140.7062  141.0764  169.6165 C.3     1  UNL1        0.1537
      5 C         140.7397  141.5771  171.0301 C.3     1  UNL1        0.2350
      6 O         142.0300  142.3157  171.2298 O.2     1  UNL1       -0.4478
      7 C         140.8135  140.6426  168.1846 C.ar    1  UNL1        0.0355
      8 C         142.0294  140.9997  167.3819 C.ar    1  UNL1        0.0007
      9 C         142.1367  140.5659  165.9500 C.ar    1  UNL1        0.0029
     10 C         141.0283  139.7750  165.3209 C.ar    1  UNL1        0.0032
     11 C         139.8125  139.4178  166.1236 C.ar    1  UNL1        0.0366
     12 C         139.7051  139.8517  167.5555 C.ar    1  UNL1        0.1364
     13 O         138.4894  139.4946  168.3582 O.3     1  UNL1       -0.4756
     14 C         138.3820  139.9284  169.7901 C.3     1  UNL1        0.2074
     15 C         139.4904  140.7193  170.4192 C.3     1  UNL1        0.0666
     16 C         139.5204  140.5982  170.0197 C.3     1  UNL1        0.0059
     17 C         139.4889  140.7255  170.4397 C.3     1  UNL1        0.0004
     18 C         139.5204  140.5982  170.0197 C.3     1  UNL1        0.0059
     19 H         144.5621  142.8021  168.8051 H       1  UNL1        0.1466
     20 H         144.6002  143.3713  170.4120 H       1  UNL1        0.1466
     21 C         143.3525  140.9230  165.1473 C.ar    1  UNL1        0.0384
     22 C         143.8983  142.3195  165.1937 C.ar    1  UNL1        0.1022
     23 N         145.1140  142.6766  164.3910 N.ar    1  UNL1       -0.2224
     24 C         145.7840  141.6373  163.5419 C.ar    1  UNL1        0.1989
     25 N         145.2382  140.2409  163.4954 N.ar    1  UNL1       -0.2224
     26 C         144.0224  139.8837  164.2982 C.ar    1  UNL1        0.1022
@<TRIPOS>BOND
     1     1     2    1
     2     2     3    2
     3     3     4    1
     4     4     5    1
     5     5     6    1
     6     4     7    1
     7     7     8   ar
     8     8     9   ar
     9     9    21    1
    10    21    22   ar
    11    22    23   ar
    12    23    24   ar
    13    24    25   ar
    14    25    26   ar
    15     9    10   ar
    16    10    11   ar
    17    11    12   ar
    18    12    13    1
    19    13    14    1
    20    14    15    1
    21    15    16    1
    22    16    17    1
    23    17    18    1
    24     6     2    1
    25    12     7   ar
    26    18    15    1
    27    15     4    1
    28    26    21   ar
    29     1    19    1
    30     1    20    1
@<TRIPOS>MOLECULE
*****
 26 30 0 0 0
SMALL
GASTEIGER

@<TRIPOS>ATOM
      1 N         137.4668  144.0038  164.8679 N.pl3   1  UNL1       -0.3133
      2 C         138.7984  144.3252  164.2570 C.2     1  UNL1        0.2770
      3 N         140.1335  143.8586  164.7570 N.2     1  UNL1       -0.2204
      4 C         141.1892  144.4147  163.8478 C.3     1  UNL1        0.1537
      5 C         140.5065  145.2249  162.7859 C.3     1  UNL1        0.2350
      6 O         139.0289  145.1696  163.0389 O.2     1  UNL1       -0.4478
      7 C         141.7289  143.5753  164.9676 C.ar    1  UNL1        0.0355
      8 C         140.7900  142.9521  165.9577 C.ar    1  UNL1        0.0007
      9 C         141.3297  142.1127  167.0775 C.ar    1  UNL1        0.0029
     10 C         142.8084  141.8965  167.2073 C.ar    1  UNL1        0.0032
     11 C         143.7473  142.5197  166.2173 C.ar    1  UNL1        0.0366
     12 C         143.2075  143.3591  165.0975 C.ar    1  UNL1        0.1364
     13 O         144.1464  143.9822  164.1075 O.3     1  UNL1       -0.4756
     14 C         143.6066  144.8216  162.9876 C.3     1  UNL1        0.2074
     15 C         142.1280  145.0378  162.8578 C.3     1  UNL1        0.0666
     16 C         142.2786  144.8037  163.1702 C.3     1  UNL1        0.0059
     17 C         142.1203  145.0498  162.8418 C.3     1  UNL1        0.0004
     18 C         142.2786  144.8037  163.1702 C.3     1  UNL1        0.0059
     19 H         137.4179  143.4378  165.6719 H       1  UNL1        0.1466
     20 H         136.6417  144.3589  164.4649 H       1  UNL1        0.1466
     21 C         140.3909  141.4895  168.0675 C.ar    1  UNL1        0.0384
     22 C         140.1749  142.1339  169.4048 C.ar    1  UNL1        0.1022
     23 N         139.2361  141.5108  170.3948 N.ar    1  UNL1       -0.2224
     24 C         138.5131  140.2431  170.0476 C.ar    1  UNL1        0.1989
     25 N         138.7290  139.5987  168.7104 N.ar    1  UNL1       -0.2224
     26 C         139.6679  140.2219  167.7203 C.ar    1  UNL1        0.1022
@<TRIPOS>BOND
     1     1     2    1
     2     2     3    2
     3     3     4    1
     4     4     5    1
     5     5     6    1
     6     4     7    1
     7     7     8   ar
     8     8     9   ar
     9     9    21    1
    10    21    22   ar
    11    22    23   ar
    12    23    24   ar
    13    24    25   ar
    14    25    26   ar
    15     9    10   ar
    16    10    11   ar
    17    11    12   ar
    18    12    13    1
    19    13    14    1
    20    14    15    1
    21    15    16    1
    22    16    17    1
    23    17    18    1
    24     6     2    1
    25    12     7   ar
    26    18    15    1
    27    15     4    1
    28    26    21   ar
    29     1    19    1
    30     1    20    1
@<TRIPOS>MOLECULE
*****
 26 30 0 0 0
SMALL
GASTEIGER

@<TRIPOS>ATOM
      1 N         143.1736  142.1422  166.4733 N.pl3   1  UNL1       -0.3133
      2 C         142.1238  141.8204  167.4951 C.2     1  UNL1        0.2770
      3 N         140.9778  140.8697  167.3126 N.2     1  UNL1       -0.2204
      4 C         140.1813  140.8544  168.5836 C.3     1  UNL1        0.1537
      5 C         140.8349  141.7955  169.5516 C.3     1  UNL1        0.2350
      6 O         142.0355  142.3925  168.8789 O.2     1  UNL1       -0.4478
      7 C         139.6410  139.9521  167.5140 C.ar    1  UNL1        0.0355
      8 C         140.3342  139.8634  166.1868 C.ar    1  UNL1        0.0007
      9 C         139.7939  138.9611  165.1172 C.ar    1  UNL1        0.0029
     10 C         138.5603  138.1475  165.3750 C.ar    1  UNL1        0.0032
     11 C         137.8671  138.2362  166.7022 C.ar    1  UNL1        0.0366
     12 C         138.4074  139.1385  167.7717 C.ar    1  UNL1        0.1364
     13 O         137.7142  139.2273  169.0990 O.3     1  UNL1       -0.4756
     14 C         138.2546  140.1296  170.1685 C.3     1  UNL1        0.2074
     15 C         139.4881  140.9431  169.9108 C.3     1  UNL1        0.0666
     16 C         139.3373  140.6914  169.6124 C.3     1  UNL1        0.0059
     17 C         139.4958  140.9560  169.9260 C.3     1  UNL1        0.0004
     18 C         139.3373  140.6914  169.6124 C.3     1  UNL1        0.0059
     19 H         143.1465  141.7129  165.5877 H       1  UNL1        0.1466
     20 H         143.8896  142.7828  166.6882 H       1  UNL1        0.1466
     21 C         140.4871  138.8723  163.7900 C.ar    1  UNL1        0.0384
     22 C         140.5326  137.5664  163.0535 C.ar    1  UNL1        0.1022
     23 N         141.2258  137.4776  161.7262 N.ar    1  UNL1       -0.2224
     24 C         141.8735  138.6948  161.1355 C.ar    1  UNL1        0.1989
     25 N         141.8280  140.0007  161.8720 N.ar    1  UNL1       -0.2224
     26 C         141.1348  140.0895  163.1993 C.ar    1  UNL1        0.1022
@<TRIPOS>BOND
     1     1     2    1
     2     2     3    2
     3     3     4    1
     4     4     5    1
     5     5     6    1
     6     4     7    1
     7     7     8   ar
     8     8     9   ar
     9     9    21    1
    10    21    22   ar
    11    22    23   ar
    12    23    24   ar
    13    24    25   ar
    14    25    26   ar
    15     9    10   ar
    16    10    11   ar
    17    11    12   ar
    18    12    13    1
    19    13    14    1
    20    14    15    1
    21    15    16    1
    22    16    17    1
    23    17    18    1
    24     6     2    1
    25    12     7   ar
    26    18    15    1
    27    15     4    1
    28    26    21   ar
    29     1    19    1
    30     1    20    1
@<TRIPOS>MOLECULE
*****
 26 30 0 0 0
SMALL
GASTEIGER

@<TRIPOS>ATOM
      1 N         137.5445  143.7874  163.7523 N.pl3   1  UNL1       -0.3133
      2 C         138.9636  144.2671  163.6754 C.2     1  UNL1        0.2770
      3 N         140.1488  143.6230  164.3318 N.2     1  UNL1       -0.2204
      4 C         141.3645  144.4329  163.9907 C.3     1  UNL1        0.1537
      5 C         140.9306  145.5775  163.1236 C.3     1  UNL1        0.2350
      6 O         139.4468  145.4749  162.9288 O.2     1  UNL1       -0.4478
      7 C         141.6476  143.2445  164.8611 C.ar    1  UNL1        0.0355
      8 C         140.5275  142.3408  165.2840 C.ar    1  UNL1        0.0007
      9 C         140.8106  141.1524  166.1544 C.ar    1  UNL1        0.0029
     10 C         142.2138  140.8677  166.6019 C.ar    1  UNL1        0.0032
     11 C         143.3338  141.7715  166.1790 C.ar    1  UNL1        0.0366
     12 C         143.0507  142.9599  165.3086 C.ar    1  UNL1        0.1364
     13 O         144.1706  143.8636  164.8857 O.3     1  UNL1       -0.4756
     14 C         143.8875  145.0520  164.0153 C.3     1  UNL1        0.2074
     15 C         142.4844  145.3367  163.5678 C.3     1  UNL1        0.0666
     16 C         142.5634  145.0051  163.8107 C.3     1  UNL1        0.0059
     17 C         142.4804  145.3536  163.5554 C.3     1  UNL1        0.0004
     18 C         142.5634  145.0051  163.8107 C.3     1  UNL1        0.0059
     19 H         137.3254  142.9794  164.2704 H       1  UNL1        0.1466
     20 H         136.8322  144.2805  163.2847 H       1  UNL1        0.1466
     21 C         139.6907  140.2487  166.5773 C.ar    1  UNL1        0.0384
     22 C         138.9223  139.4741  165.5478 C.ar    1  UNL1        0.1022
     23 N         137.8024  138.5704  165.9707 N.ar    1  UNL1       -0.2224
     24 C         137.4507  138.4411  167.4231 C.ar    1  UNL1        0.1989
     25 N         138.2189  139.2156  168.4526 N.ar    1  UNL1       -0.2224
     26 C         139.3389  140.1194  168.0297 C.ar    1  UNL1        0.1022
@<TRIPOS>BOND
     1     1     2    1
     2     2     3    2
     3     3     4    1
     4     4     5    1
     5     5     6    1
     6     4     7    1
     7     7     8   ar
     8     8     9   ar
     9     9    21    1
    10    21    22   ar
    11    22    23   ar
    12    23    24   ar
    13    24    25   ar
    14    25    26   ar
    15     9    10   ar
    16    10    11   ar
    17    11    12   ar
    18    12    13    1
    19    13    14    1
    20    14    15    1
    21    15    16    1
    22    16    17    1
    23    17    18    1
    24     6     2    1
    25    12     7   ar
    26    18    15    1
    27    15     4    1
    28    26    21   ar
    29     1    19    1
    30     1    20    1
@<TRIPOS>MOLECULE
*****
 26 30 0 0 0
SMALL
GASTEIGER

@<TRIPOS>ATOM
      1 N         145.1116  139.4175  164.1244 N.pl3   1  UNL1       -0.3133
      2 C         143.8111  138.9262  163.5613 C.2     1  UNL1        0.2770
      3 N         142.4729  139.0056  164.2343 N.2     1  UNL1       -0.2204
      4 C         141.4550  138.3976  163.3153 C.3     1  UNL1        0.1537
      5 C         142.1642  137.9426  162.0743 C.3     1  UNL1        0.2350
      6 O         143.6204  138.2693  162.2264 O.2     1  UNL1       -0.4478
      7 C         140.8857  138.9015  164.6083 C.ar    1  UNL1        0.0355
      8 C         141.7854  139.5355  165.6275 C.ar    1  UNL1        0.0007
      9 C         141.2160  140.0394  166.9205 C.ar    1  UNL1        0.0029
     10 C         139.7469  139.9093  167.1944 C.ar    1  UNL1        0.0032
     11 C         138.8473  139.2753  166.1752 C.ar    1  UNL1        0.0366
     12 C         139.4167  138.7715  164.8822 C.ar    1  UNL1        0.1364
     13 O         138.5170  138.1375  163.8630 O.3     1  UNL1       -0.4756
     14 C         139.0864  137.6336  162.5700 C.3     1  UNL1        0.2074
     15 C         140.5554  137.7637  162.2961 C.3     1  UNL1        0.0666
     16 C         140.3965  137.9043  162.6569 C.3     1  UNL1        0.0059
     17 C         140.5635  137.7565  162.2777 C.3     1  UNL1        0.0004
     18 C         140.3965  137.9043  162.6569 C.3     1  UNL1        0.0059
     19 H         145.1353  139.8374  165.0145 H       1  UNL1        0.1466
     20 H         145.9415  139.3202  163.6038 H       1  UNL1        0.1466
     21 C         142.1157  140.6733  167.9397 C.ar    1  UNL1        0.0384
     22 C         142.6813  142.0407  167.6937 C.ar    1  UNL1        0.1022
     23 N         143.5809  142.6746  168.7129 N.ar    1  UNL1       -0.2224
     24 C         143.9150  141.9412  169.9780 C.ar    1  UNL1        0.1989
     25 N         143.3495  140.5739  170.2240 N.ar    1  UNL1       -0.2224
     26 C         142.4498  139.9399  169.2048 C.ar    1  UNL1        0.1022
@<TRIPOS>BOND
     1     1     2    1
     2     2     3    2
     3     3     4    1
     4     4     5    1
     5     5     6    1
     6     4     7    1
     7     7     8   ar
     8     8     9   ar
     9     9    21    1
    10    21    22   ar
    11    22    23   ar
    12    23    24   ar
    13    24    25   ar
    14    25    26   ar
    15     9    10   ar
    16    10    11   ar
    17    11    12   ar
    18    12    13    1
    19    13    14    1
    20    14    15    1
    21    15    16    1
    22    16    17    1
    23    17    18    1
    24     6     2    1
    25    12     7   ar
    26    18    15    1
    27    15     4    1
    28    26    21   ar
    29     1    19    1
    30     1    20    1
@<TRIPOS>MOLECULE
*****
 26 30 0 0 0
SMALL
GASTEIGER

@<TRIPOS>ATOM
      1 N         138.7355  145.1373  165.5772 N.pl3   1  UNL1       -0.3133
      2 C         138.4236  144.1088  164.5309 C.2     1  UNL1        0.2770
      3 N         138.5814  142.6245  164.6790 N.2     1  UNL1       -0.2204
      4 C         138.1544  141.9823  163.3923 C.3     1  UNL1        0.1537
      5 C         137.7327  143.0697  162.4491 C.3     1  UNL1        0.2350
      6 O         137.8990  144.3840  163.1528 O.2     1  UNL1       -0.4478
      7 C         138.6064  141.0083  164.4397 C.ar    1  UNL1        0.0355
      8 C         139.0630  141.5056  165.7793 C.ar    1  UNL1        0.0007
      9 C         139.5150  140.5316  166.8266 C.ar    1  UNL1        0.0029
     10 C         139.5105  139.0603  166.5345 C.ar    1  UNL1        0.0032
     11 C         139.0540  138.5630  165.1950 C.ar    1  UNL1        0.0366
     12 C         138.6020  139.5370  164.1476 C.ar    1  UNL1        0.1364
     13 O         138.1455  139.0398  162.8081 O.3     1  UNL1       -0.4756
     14 C         137.6935  140.0138  161.7607 C.3     1  UNL1        0.2074
     15 C         137.6979  141.4850  162.0528 C.3     1  UNL1        0.0666
     16 C         137.8240  141.2133  162.3450 C.3     1  UNL1        0.0059
     17 C         137.6915  141.4989  162.0379 C.3     1  UNL1        0.0004
     18 C         137.8240  141.2133  162.3450 C.3     1  UNL1        0.0059
     19 H         139.0776  144.8567  166.4567 H       1  UNL1        0.1466
     20 H         138.5981  146.0929  165.3845 H       1  UNL1        0.1466
     21 C         139.9715  141.0289  168.1661 C.ar    1  UNL1        0.0384
     22 C         140.8504  142.2411  168.2565 C.ar    1  UNL1        0.1022
     23 N         141.3069  142.7383  169.5960 N.ar    1  UNL1       -0.2224
     24 C         140.8845  142.0234  170.8452 C.ar    1  UNL1        0.1989
     25 N         140.0056  140.8113  170.7549 N.ar    1  UNL1       -0.2224
     26 C         139.5491  140.3140  169.4153 C.ar    1  UNL1        0.1022
@<TRIPOS>BOND
     1     1     2    1
     2     2     3    2
     3     3     4    1
     4     4     5    1
     5     5     6    1
     6     4     7    1
     7     7     8   ar
     8     8     9   ar
     9     9    21    1
    10    21    22   ar
    11    22    23   ar
    12    23    24   ar
    13    24    25   ar
    14    25    26   ar
    15     9    10   ar
    16    10    11   ar
    17    11    12   ar
    18    12    13    1
    19    13    14    1
    20    14    15    1
    21    15    16    1
    22    16    17    1
    23    17    18    1
    24     6     2    1
    25    12     7   ar
    26    18    15    1
    27    15     4    1
    28    26    21   ar
    29     1    19    1
    30     1    20    1
@<TRIPOS>MOLECULE
*****
 26 30 0 0 0
SMALL
GASTEIGER

@<TRIPOS>ATOM
      1 N         138.7564  145.3080  165.6886 N.pl3   1  UNL1       -0.3133
      2 C         138.4025  144.1380  164.8194 C.2     1  UNL1        0.2770
      3 N         138.8698  142.7253  165.0092 N.2     1  UNL1       -0.2204
      4 C         138.2752  141.8894  163.9147 C.3     1  UNL1        0.1537
      5 C         137.4404  142.7855  163.0485 C.3     1  UNL1        0.2350
      6 O         137.5191  144.1752  163.6077 O.2     1  UNL1       -0.4478
      7 C         139.1423  141.1205  164.8670 C.ar    1  UNL1        0.0355
      8 C         139.8052  141.8250  166.0135 C.ar    1  UNL1        0.0007
      9 C         140.6724  141.0561  166.9658 C.ar    1  UNL1        0.0029
     10 C         140.8767  139.5827  166.7716 C.ar    1  UNL1        0.0032
     11 C         140.2138  138.8784  165.6251 C.ar    1  UNL1        0.0366
     12 C         139.3466  139.6472  164.6728 C.ar    1  UNL1        0.1364
     13 O         138.6837  138.9429  163.5264 O.3     1  UNL1       -0.4756
     14 C         137.8166  139.7117  162.5741 C.3     1  UNL1        0.2074
     15 C         137.6123  141.1850  162.7683 C.3     1  UNL1        0.0666
     16 C         137.8542  140.9705  163.0339 C.3     1  UNL1        0.0059
     17 C         137.5999  141.1960  162.7547 C.3     1  UNL1        0.0004
     18 C         137.8542  140.9705  163.0339 C.3     1  UNL1        0.0059
     19 H         139.3471  145.1826  166.4662 H       1  UNL1        0.1466
     20 H         138.3981  146.2013  165.4816 H       1  UNL1        0.1466
     21 C         141.3353  141.7605  168.1122 C.ar    1  UNL1        0.0384
     22 C         140.5742  142.7795  168.9075 C.ar    1  UNL1        0.1022
     23 N         141.2371  143.4839  170.0539 N.ar    1  UNL1       -0.2224
     24 C         142.6611  143.1693  170.4052 C.ar    1  UNL1        0.1989
     25 N         143.4221  142.1503  169.6100 N.ar    1  UNL1       -0.2224
     26 C         142.7592  141.4458  168.4635 C.ar    1  UNL1        0.1022
@<TRIPOS>BOND
     1     1     2    1
     2     2     3    2
     3     3     4    1
     4     4     5    1
     5     5     6    1
     6     4     7    1
     7     7     8   ar
     8     8     9   ar
     9     9    21    1
    10    21    22   ar
    11    22    23   ar
    12    23    24   ar
    13    24    25   ar
    14    25    26   ar
    15     9    10   ar
    16    10    11   ar
    17    11    12   ar
    18    12    13    1
    19    13    14    1
    20    14    15    1
    21    15    16    1
    22    16    17    1
    23    17    18    1
    24     6     2    1
    25    12     7   ar
    26    18    15    1
    27    15     4    1
    28    26    21   ar
    29     1    19    1
    30     1    20    1
@<TRIPOS>MOLECULE
*****
 26 30 0 0 0
SMALL
GASTEIGER

@<TRIPOS>ATOM
      1 N         138.9699  139.9279  163.3982 N.pl3   1  UNL1       -0.3133
      2 C         139.0255  139.9068  164.8969 C.2     1  UNL1        0.2770
      3 N         140.0928  140.5282  165.7484 N.2     1  UNL1       -0.2204
      4 C         139.7506  140.2661  167.1852 C.3     1  UNL1        0.1537
      5 C         138.4719  139.4826  167.2216 C.3     1  UNL1        0.2350
      6 O         138.0238  139.2606  165.8073 O.2     1  UNL1       -0.4478
      7 C         141.0164  141.0474  166.9923 C.ar    1  UNL1        0.0355
      8 C         141.4856  141.3853  165.6082 C.ar    1  UNL1        0.0007
      9 C         142.7514  142.1667  165.4153 C.ar    1  UNL1        0.0029
     10 C         143.5480  142.6101  166.6065 C.ar    1  UNL1        0.0032
     11 C         143.0788  142.2721  167.9906 C.ar    1  UNL1        0.0366
     12 C         141.8129  141.4908  168.1834 C.ar    1  UNL1        0.1364
     13 O         141.3437  141.1529  169.5675 O.3     1  UNL1       -0.4756
     14 C         140.0779  140.3715  169.7604 C.3     1  UNL1        0.2074
     15 C         139.2813  139.9281  168.5692 C.3     1  UNL1        0.0666
     16 C         139.6345  140.1461  168.5154 C.3     1  UNL1        0.0059
     17 C         139.2632  139.9170  168.5720 C.3     1  UNL1        0.0004
     18 C         139.6345  140.1461  168.5154 C.3     1  UNL1        0.0059
     19 H         139.6785  140.3801  162.8856 H       1  UNL1        0.1466
     20 H         138.2249  139.4896  162.9270 H       1  UNL1        0.1466
     21 C         143.2207  142.5046  164.0313 C.ar    1  UNL1        0.0384
     22 C         143.0140  141.5296  162.9103 C.ar    1  UNL1        0.1022
     23 N         143.4832  141.8675  161.5262 N.ar    1  UNL1       -0.2224
     24 C         144.1592  143.1804  161.2632 C.ar    1  UNL1        0.1989
     25 N         144.3659  144.1555  162.3841 N.ar    1  UNL1       -0.2224
     26 C         143.8967  143.8175  163.7682 C.ar    1  UNL1        0.1022
@<TRIPOS>BOND
     1     1     2    1
     2     2     3    2
     3     3     4    1
     4     4     5    1
     5     5     6    1
     6     4     7    1
     7     7     8   ar
     8     8     9   ar
     9     9    21    1
    10    21    22   ar
    11    22    23   ar
    12    23    24   ar
    13    24    25   ar
    14    25    26   ar
    15     9    10   ar
    16    10    11   ar
    17    11    12   ar
    18    12    13    1
    19    13    14    1
    20    14    15    1
    21    15    16    1
    22    16    17    1
    23    17    18    1
    24     6     2    1
    25    12     7   ar
    26    18    15    1
    27    15     4    1
    28    26    21   ar
    29     1    19    1
    30     1    20    1
@<TRIPOS>MOLECULE
*****
 26 30 0 0 0
SMALL
GASTEIGER

@<TRIPOS>ATOM
      1 N         143.0921  141.9627  165.2529 N.pl3   1  UNL1       -0.3133
      2 C         142.8271  142.0115  166.7285 C.2     1  UNL1        0.2770
      3 N         141.6567  141.3940  167.4349 N.2     1  UNL1       -0.2204
      4 C         141.7921  141.6872  168.8998 C.3     1  UNL1        0.1537
      5 C         143.0461  142.4858  169.0986 C.3     1  UNL1        0.2350
      6 O         143.6858  142.6863  167.7567 O.2     1  UNL1       -0.4478
      7 C         140.5726  140.8878  168.5477 C.ar    1  UNL1        0.0355
      8 C         140.3047  140.5184  167.1188 C.ar    1  UNL1        0.0007
      9 C         139.0853  139.7191  166.7667 C.ar    1  UNL1        0.0029
     10 C         138.1337  139.2891  167.8437 C.ar    1  UNL1        0.0032
     11 C         138.4016  139.6585  169.2725 C.ar    1  UNL1        0.0366
     12 C         139.6211  140.4578  169.6246 C.ar    1  UNL1        0.1364
     13 O         139.8890  140.8272  171.0534 O.3     1  UNL1       -0.4756
     14 C         141.1085  141.6266  171.4055 C.3     1  UNL1        0.2074
     15 C         142.0600  142.0566  170.3286 C.3     1  UNL1        0.0666
     16 C         141.7198  141.8335  170.2304 C.3     1  UNL1        0.0059
     17 C         142.0774  142.0680  170.3337 C.3     1  UNL1        0.0004
     18 C         141.7198  141.8335  170.2304 C.3     1  UNL1        0.0059
     19 H         142.4663  141.4928  164.6557 H       1  UNL1        0.1466
     20 H         143.8919  142.4007  164.8817 H       1  UNL1        0.1466
     21 C         138.8173  139.3497  165.3379 C.ar    1  UNL1        0.0384
     22 C         139.1632  137.9774  164.8404 C.ar    1  UNL1        0.1022
     23 N         138.8953  137.6080  163.4115 N.ar    1  UNL1       -0.2224
     24 C         138.2815  138.6109  162.4800 C.ar    1  UNL1        0.1989
     25 N         137.9357  139.9830  162.9774 N.ar    1  UNL1       -0.2224
     26 C         138.2036  140.3525  164.4064 C.ar    1  UNL1        0.1022
@<TRIPOS>BOND
     1     1     2    1
     2     2     3    2
     3     3     4    1
     4     4     5    1
     5     5     6    1
     6     4     7    1
     7     7     8   ar
     8     8     9   ar
     9     9    21    1
    10    21    22   ar
    11    22    23   ar
    12    23    24   ar
    13    24    25   ar
    14    25    26   ar
    15     9    10   ar
    16    10    11   ar
    17    11    12   ar
    18    12    13    1
    19    13    14    1
    20    14    15    1
    21    15    16    1
    22    16    17    1
    23    17    18    1
    24     6     2    1
    25    12     7   ar
    26    18    15    1
    27    15     4    1
    28    26    21   ar
    29     1    19    1
    30     1    20    1
