@<TRIPOS>MOLECULE
*****
 32 37 0 0 0
SMALL
GASTEIGER

@<TRIPOS>ATOM
      1 N         140.5455  141.6830  167.9620 N.ar    1  UNL1       -0.2338
      2 N         140.8730  142.7349  166.9440 N.ar    1  UNL1       -0.1679
      3 C         140.1358  142.4027  165.6806 C.ar    1  UNL1        0.1065
      4 C         139.3526  141.1455  165.9178 C.ar    1  UNL1        0.0860
      5 C         138.4417  140.3483  165.0320 C.ar    1  UNL1        0.1316
      6 N         138.1885  140.7931  163.6220 N.pl3   1  UNL1       -0.3425
      7 N         137.7839  139.1063  165.5562 N.ar    1  UNL1       -0.2093
      8 C         138.0371  138.6615  166.9662 C.ar    1  UNL1        0.2014
      9 N         138.9481  139.4588  167.8520 N.ar    1  UNL1       -0.2050
     10 C         139.6058  140.7007  167.3278 C.ar    1  UNL1        0.1653
     11 H         138.6203  141.6083  163.2780 H       1  UNL1        0.1437
     12 H         137.5907  140.2699  163.0407 H       1  UNL1        0.1437
     13 C         140.1749  143.1895  164.4041 C.ar    1  UNL1        0.0196
     14 C         139.2727  144.3745  164.2255 C.ar    1  UNL1        0.0031
     15 C         139.3118  145.1612  162.9490 C.ar    1  UNL1        0.0193
     16 C         140.2531  144.7630  161.8511 C.ar    1  UNL1        0.0844
     17 N         140.2922  145.5498  160.5746 N.ar    1  UNL1       -0.2117
     18 C         141.2334  145.1516  159.4767 C.ar    1  UNL1        0.2247
     19 C         142.1356  143.9666  159.6553 C.ar    1  UNL1        0.0577
     20 C         142.0965  143.1798  160.9317 C.ar    1  UNL1        0.0063
     21 C         141.1553  143.5780  162.0297 C.ar    1  UNL1        0.0180
     22 C         141.1161  142.7913  163.3062 C.ar    1  UNL1        0.0031
     23 O         141.2725  145.9383  158.2002 O.3     1  UNL1       -0.4640
     24 C         140.2552  145.6801  157.1285 C.3     1  UNL1        0.1678
     25 C         139.3750  146.1854  156.0240 C.3     1  UNL1        0.0473
     26 C         139.3733  144.7276  156.3769 C.3     1  UNL1        0.0473
     27 C         141.0661  141.6239  169.3675 C.3     1  UNL1        0.1338
     28 C         142.9063  140.6289  169.0158 C.3     1  UNL1        0.0070
     29 C         142.5077  141.9300  169.6468 C.3     1  UNL1        0.0773
     30 C         142.1092  143.2311  170.2778 C.3     1  UNL1        0.1464
     31 O         143.5508  143.5373  170.5571 O.3     1  UNL1       -0.3535
     32 C         143.9493  142.2361  169.9261 C.3     1  UNL1        0.1464
@<TRIPOS>BOND
     1    28    29    1
     2    29    27    1
     3    27     1    1
     4     1     2   ar
     5     2     3   ar
     6     3    13    1
     7    13    14   ar
     8    14    15   ar
     9    15    16   ar
    10    16    17   ar
    11    17    18   ar
    12    18    23    1
    13    23    24    1
    14    24    25    1
    15    25    26    1
    16    18    19   ar
    17    19    20   ar
    18    20    21   ar
    19    21    22   ar
    20     3     4   ar
    21     4     5   ar
    22     5     6    1
    23     5     7   ar
    24     7     8   ar
    25     8     9   ar
    26     9    10   ar
    27    29    30    1
    28    30    31    1
    29    31    32    1
    30    32    29    1
    31    10     1   ar
    32    22    13   ar
    33    10     4   ar
    34    21    16   ar
    35    26    24    1
    36     6    11    1
    37     6    12    1
@<TRIPOS>MOLECULE
*****
 32 37 0 0 0
SMALL
GASTEIGER

@<TRIPOS>ATOM
      1 N         142.2224  140.0198  167.6836 N.ar    1  UNL1       -0.2338
      2 N         143.0724  140.0111  166.4477 N.ar    1  UNL1       -0.1679
      3 C         142.1790  139.7456  165.2725 C.ar    1  UNL1        0.1065
      4 C         140.7768  139.5901  165.7819 C.ar    1  UNL1        0.0860
      5 C         139.4790  139.3162  165.0814 C.ar    1  UNL1        0.1316
      6 N         139.4523  139.1468  163.5913 N.pl3   1  UNL1       -0.3425
      7 N         138.2080  139.2116  165.8711 N.ar    1  UNL1       -0.2093
      8 C         138.2347  139.3810  167.3612 C.ar    1  UNL1        0.2014
      9 N         139.5326  139.6550  168.0617 N.ar    1  UNL1       -0.2050
     10 C         140.8035  139.7596  167.2721 C.ar    1  UNL1        0.1653
     11 H         140.2865  139.2154  163.0730 H       1  UNL1        0.1437
     12 H         138.6005  138.9669  163.1315 H       1  UNL1        0.1437
     13 C         142.6119  139.6520  163.8393 C.ar    1  UNL1        0.0196
     14 C         142.9850  138.3224  163.2538 C.ar    1  UNL1        0.0031
     15 C         143.4178  138.2288  161.8207 C.ar    1  UNL1        0.0193
     16 C         143.4775  139.4649  160.9730 C.ar    1  UNL1        0.0844
     17 N         143.9103  139.3713  159.5398 N.ar    1  UNL1       -0.2117
     18 C         143.9700  140.6074  158.6922 C.ar    1  UNL1        0.2247
     19 C         143.5968  141.9371  159.2777 C.ar    1  UNL1        0.0577
     20 C         143.1640  142.0306  160.7108 C.ar    1  UNL1        0.0063
     21 C         143.1043  140.7945  161.5585 C.ar    1  UNL1        0.0180
     22 C         142.6715  140.8881  162.9916 C.ar    1  UNL1        0.0031
     23 O         144.4028  140.5138  157.2590 O.3     1  UNL1       -0.4640
     24 C         145.5744  141.3160  156.7755 C.3     1  UNL1        0.1678
     25 C         146.5413  142.4472  156.9648 C.3     1  UNL1        0.0473
     26 C         146.6369  141.5743  155.7487 C.3     1  UNL1        0.0473
     27 C         142.7061  140.2484  169.0849 C.3     1  UNL1        0.1338
     28 C         143.1496  142.2840  168.6851 C.3     1  UNL1        0.0070
     29 C         142.4226  141.5507  169.7731 C.3     1  UNL1        0.0773
     30 C         141.6956  140.8175  170.8611 C.3     1  UNL1        0.1464
     31 O         141.4120  142.1197  171.5493 O.3     1  UNL1       -0.3535
     32 C         142.1391  142.8530  170.4613 C.3     1  UNL1        0.1464
@<TRIPOS>BOND
     1    28    29    1
     2    29    27    1
     3    27     1    1
     4     1     2   ar
     5     2     3   ar
     6     3    13    1
     7    13    14   ar
     8    14    15   ar
     9    15    16   ar
    10    16    17   ar
    11    17    18   ar
    12    18    23    1
    13    23    24    1
    14    24    25    1
    15    25    26    1
    16    18    19   ar
    17    19    20   ar
    18    20    21   ar
    19    21    22   ar
    20     3     4   ar
    21     4     5   ar
    22     5     6    1
    23     5     7   ar
    24     7     8   ar
    25     8     9   ar
    26     9    10   ar
    27    29    30    1
    28    30    31    1
    29    31    32    1
    30    32    29    1
    31    10     1   ar
    32    22    13   ar
    33    10     4   ar
    34    21    16   ar
    35    26    24    1
    36     6    11    1
    37     6    12    1
@<TRIPOS>MOLECULE
*****
 32 37 0 0 0
SMALL
GASTEIGER

@<TRIPOS>ATOM
      1 N         138.4663  142.8745  158.4547 N.ar    1  UNL1       -0.2338
      2 N         138.2011  142.6768  159.9178 N.ar    1  UNL1       -0.1679
      3 C         139.2618  143.4097  160.6844 C.ar    1  UNL1        0.1065
      4 C         140.1826  144.0604  159.6950 C.ar    1  UNL1        0.0860
      5 C         141.4053  144.9114  159.8710 C.ar    1  UNL1        0.1316
      6 N         141.8969  145.2422  161.2490 N.pl3   1  UNL1       -0.3425
      7 N         142.1363  145.4317  158.6689 N.ar    1  UNL1       -0.2093
      8 C         141.6447  145.1010  157.2909 C.ar    1  UNL1        0.2014
      9 N         140.4219  144.2499  157.1150 N.ar    1  UNL1       -0.2050
     10 C         139.6910  143.7297  158.3171 C.ar    1  UNL1        0.1653
     11 H         141.4171  144.9007  162.0379 H       1  UNL1        0.1437
     12 H         142.6994  145.8007  161.3644 H       1  UNL1        0.1437
     13 C         139.3809  143.4796  162.1780 C.ar    1  UNL1        0.0196
     14 C         138.6115  144.5146  162.9441 C.ar    1  UNL1        0.0031
     15 C         138.7306  144.5845  164.4377 C.ar    1  UNL1        0.0193
     16 C         139.6191  143.6194  165.1652 C.ar    1  UNL1        0.0844
     17 N         139.7382  143.6894  166.6589 N.ar    1  UNL1       -0.2117
     18 C         140.6267  142.7244  167.3864 C.ar    1  UNL1        0.2247
     19 C         141.3962  141.6894  166.6203 C.ar    1  UNL1        0.0577
     20 C         141.2771  141.6195  165.1267 C.ar    1  UNL1        0.0063
     21 C         140.3886  142.5845  164.3992 C.ar    1  UNL1        0.0180
     22 C         140.2694  142.5146  162.9056 C.ar    1  UNL1        0.0031
     23 O         140.7459  142.7943  168.8800 O.3     1  UNL1       -0.4640
     24 C         142.0986  142.7556  169.5272 C.3     1  UNL1        0.1678
     25 C         143.0177  143.1607  170.6413 C.3     1  UNL1        0.0473
     26 C         143.5223  142.2837  169.5340 C.3     1  UNL1        0.0473
     27 C         137.6501  142.3153  157.3273 C.3     1  UNL1        0.1338
     28 C         138.1260  142.1302  155.2683 C.3     1  UNL1        0.0070
     29 C         138.2126  141.2265  156.4624 C.3     1  UNL1        0.0773
     30 C         138.2991  140.3227  157.6564 C.3     1  UNL1        0.1464
     31 O         138.8615  139.2339  156.7916 O.3     1  UNL1       -0.3535
     32 C         138.7750  140.1376  155.5975 C.3     1  UNL1        0.1464
@<TRIPOS>BOND
     1    28    29    1
     2    29    27    1
     3    27     1    1
     4     1     2   ar
     5     2     3   ar
     6     3    13    1
     7    13    14   ar
     8    14    15   ar
     9    15    16   ar
    10    16    17   ar
    11    17    18   ar
    12    18    23    1
    13    23    24    1
    14    24    25    1
    15    25    26    1
    16    18    19   ar
    17    19    20   ar
    18    20    21   ar
    19    21    22   ar
    20     3     4   ar
    21     4     5   ar
    22     5     6    1
    23     5     7   ar
    24     7     8   ar
    25     8     9   ar
    26     9    10   ar
    27    29    30    1
    28    30    31    1
    29    31    32    1
    30    32    29    1
    31    10     1   ar
    32    22    13   ar
    33    10     4   ar
    34    21    16   ar
    35    26    24    1
    36     6    11    1
    37     6    12    1
@<TRIPOS>MOLECULE
*****
 32 37 0 0 0
SMALL
GASTEIGER

@<TRIPOS>ATOM
      1 N         141.0092  141.2100  167.2343 N.ar    1  UNL1       -0.2338
      2 N         141.8927  141.1933  166.0222 N.ar    1  UNL1       -0.1679
      3 C         141.3761  140.1410  165.0865 C.ar    1  UNL1        0.1065
      4 C         140.1733  139.5072  165.7203 C.ar    1  UNL1        0.0860
      5 C         139.2553  138.4138  165.2601 C.ar    1  UNL1        0.1316
      6 N         139.4821  137.7532  163.9327 N.pl3   1  UNL1       -0.3425
      7 N         138.1105  137.9811  166.1274 N.ar    1  UNL1       -0.2093
      8 C         137.8837  138.6418  167.4548 C.ar    1  UNL1        0.2014
      9 N         138.8018  139.7352  167.9149 N.ar    1  UNL1       -0.2050
     10 C         139.9465  140.1678  167.0477 C.ar    1  UNL1        0.1653
     11 H         140.2335  138.0371  163.3635 H       1  UNL1        0.1437
     12 H         138.8796  137.0355  163.6307 H       1  UNL1        0.1437
     13 C         141.9598  139.7848  163.7514 C.ar    1  UNL1        0.0196
     14 C         143.2114  138.9616  163.6755 C.ar    1  UNL1        0.0031
     15 C         143.7950  138.6055  162.3404 C.ar    1  UNL1        0.0193
     16 C         143.1271  139.0727  161.0812 C.ar    1  UNL1        0.0844
     17 N         143.7108  138.7165  159.7460 N.ar    1  UNL1       -0.2117
     18 C         143.0429  139.1837  158.4868 C.ar    1  UNL1        0.2247
     19 C         141.7913  140.0070  158.5627 C.ar    1  UNL1        0.0577
     20 C         141.2076  140.3631  159.8978 C.ar    1  UNL1        0.0063
     21 C         141.8756  139.8959  161.1570 C.ar    1  UNL1        0.0180
     22 C         141.2919  140.2520  162.4921 C.ar    1  UNL1        0.0031
     23 O         143.6265  138.8276  157.1517 O.3     1  UNL1       -0.4640
     24 C         143.2620  137.5286  156.4961 C.3     1  UNL1        0.1678
     25 C         143.6658  136.2925  155.7485 C.3     1  UNL1        0.0473
     26 C         142.2267  136.5149  156.1083 C.3     1  UNL1        0.0473
     27 C         141.1616  142.1106  168.4241 C.3     1  UNL1        0.1338
     28 C         142.7687  140.9836  169.2285 C.3     1  UNL1        0.0070
     29 C         141.4801  141.5286  169.7694 C.3     1  UNL1        0.0773
     30 C         140.1915  142.0736  170.3103 C.3     1  UNL1        0.1464
     31 O         140.5101  141.4916  171.6555 O.3     1  UNL1       -0.3535
     32 C         141.7986  140.9466  171.1147 C.3     1  UNL1        0.1464
@<TRIPOS>BOND
     1    28    29    1
     2    29    27    1
     3    27     1    1
     4     1     2   ar
     5     2     3   ar
     6     3    13    1
     7    13    14   ar
     8    14    15   ar
     9    15    16   ar
    10    16    17   ar
    11    17    18   ar
    12    18    23    1
    13    23    24    1
    14    24    25    1
    15    25    26    1
    16    18    19   ar
    17    19    20   ar
    18    20    21   ar
    19    21    22   ar
    20     3     4   ar
    21     4     5   ar
    22     5     6    1
    23     5     7   ar
    24     7     8   ar
    25     8     9   ar
    26     9    10   ar
    27    29    30    1
    28    30    31    1
    29    31    32    1
    30    32    29    1
    31    10     1   ar
    32    22    13   ar
    33    10     4   ar
    34    21    16   ar
    35    26    24    1
    36     6    11    1
    37     6    12    1
@<TRIPOS>MOLECULE
*****
 32 37 0 0 0
SMALL
GASTEIGER

@<TRIPOS>ATOM
      1 N         140.1807  142.4076  163.5652 N.ar    1  UNL1       -0.2338
      2 N         140.8940  141.9838  162.3156 N.ar    1  UNL1       -0.1679
      3 C         140.7416  140.4981  162.1761 C.ar    1  UNL1        0.1065
      4 C         139.9340  140.0037  163.3395 C.ar    1  UNL1        0.0860
      5 C         139.4695  138.6314  163.7280 C.ar    1  UNL1        0.1316
      6 N         139.8162  137.4513  162.8694 N.pl3   1  UNL1       -0.3425
      7 N         138.6584  138.4392  164.9751 N.ar    1  UNL1       -0.2093
      8 C         138.3118  139.6193  165.8336 C.ar    1  UNL1        0.2014
      9 N         138.7763  140.9917  165.4450 N.ar    1  UNL1       -0.2050
     10 C         139.5874  141.1838  164.1980 C.ar    1  UNL1        0.1653
     11 H         140.3485  137.5774  162.0510 H       1  UNL1        0.1437
     12 H         139.5113  136.5505  163.1244 H       1  UNL1        0.1437
     13 C         141.2988  139.6548  161.0677 C.ar    1  UNL1        0.0196
     14 C         142.7144  139.1638  161.1380 C.ar    1  UNL1        0.0031
     15 C         143.2716  138.3205  160.0297 C.ar    1  UNL1        0.0193
     16 C         142.4131  137.9682  158.8511 C.ar    1  UNL1        0.0844
     17 N         142.9704  137.1249  157.7428 N.ar    1  UNL1       -0.2117
     18 C         142.1120  136.7726  156.5642 C.ar    1  UNL1        0.2247
     19 C         140.6963  137.2636  156.4940 C.ar    1  UNL1        0.0577
     20 C         140.1391  138.1069  157.6023 C.ar    1  UNL1        0.0063
     21 C         140.9976  138.4592  158.7809 C.ar    1  UNL1        0.0180
     22 C         140.4404  139.3025  159.8892 C.ar    1  UNL1        0.0031
     23 O         142.6692  135.9293  155.4559 O.3     1  UNL1       -0.4640
     24 C         143.0350  134.4977  155.7140 C.3     1  UNL1        0.1678
     25 C         143.8985  133.4809  156.4000 C.3     1  UNL1        0.0473
     26 C         142.8052  133.0348  155.4751 C.3     1  UNL1        0.0473
     27 C         140.0786  143.8091  164.0899 C.3     1  UNL1        0.1338
     28 C         141.5273  145.2403  163.4956 C.3     1  UNL1        0.0070
     29 C         140.0957  144.9691  163.1390 C.3     1  UNL1        0.0773
     30 C         138.6642  144.6979  162.7824 C.3     1  UNL1        0.1464
     31 O         138.6813  145.8578  161.8316 O.3     1  UNL1       -0.3535
     32 C         140.1128  146.1290  162.1881 C.3     1  UNL1        0.1464
@<TRIPOS>BOND
     1    28    29    1
     2    29    27    1
     3    27     1    1
     4     1     2   ar
     5     2     3   ar
     6     3    13    1
     7    13    14   ar
     8    14    15   ar
     9    15    16   ar
    10    16    17   ar
    11    17    18   ar
    12    18    23    1
    13    23    24    1
    14    24    25    1
    15    25    26    1
    16    18    19   ar
    17    19    20   ar
    18    20    21   ar
    19    21    22   ar
    20     3     4   ar
    21     4     5   ar
    22     5     6    1
    23     5     7   ar
    24     7     8   ar
    25     8     9   ar
    26     9    10   ar
    27    29    30    1
    28    30    31    1
    29    31    32    1
    30    32    29    1
    31    10     1   ar
    32    22    13   ar
    33    10     4   ar
    34    21    16   ar
    35    26    24    1
    36     6    11    1
    37     6    12    1
@<TRIPOS>MOLECULE
*****
 32 37 0 0 0
SMALL
GASTEIGER

@<TRIPOS>ATOM
      1 N         140.2376  141.0586  164.2814 N.ar    1  UNL1       -0.2338
      2 N         140.5154  141.1572  162.8107 N.ar    1  UNL1       -0.1679
      3 C         141.8291  140.4853  162.5410 C.ar    1  UNL1        0.1065
      4 C         142.3633  139.9716  163.8451 C.ar    1  UNL1        0.0860
      5 C         143.6183  139.2269  164.1921 C.ar    1  UNL1        0.1316
      6 N         144.6019  138.8726  163.1164 N.pl3   1  UNL1       -0.3425
      7 N         143.8898  138.8365  165.6148 N.ar    1  UNL1       -0.2093
      8 C         142.9062  139.1908  166.6904 C.ar    1  UNL1        0.2014
      9 N         141.6512  139.9355  166.3433 N.ar    1  UNL1       -0.2050
     10 C         141.3798  140.3259  164.9208 C.ar    1  UNL1        0.1653
     11 H         144.4237  139.1288  162.1827 H       1  UNL1        0.1437
     12 H         145.4256  138.3839  163.3442 H       1  UNL1        0.1437
     13 C         142.4923  140.3509  161.2022 C.ar    1  UNL1        0.0196
     14 C         142.3148  139.0959  160.4000 C.ar    1  UNL1        0.0031
     15 C         142.9779  138.9615  159.0613 C.ar    1  UNL1        0.0193
     16 C         143.8186  140.0820  158.5249 C.ar    1  UNL1        0.0844
     17 N         144.4817  139.9475  157.1861 N.ar    1  UNL1       -0.2117
     18 C         145.3224  141.0680  156.6496 C.ar    1  UNL1        0.2247
     19 C         145.4999  142.3230  157.4520 C.ar    1  UNL1        0.0577
     20 C         144.8367  142.4574  158.7906 C.ar    1  UNL1        0.0063
     21 C         143.9961  141.3369  159.3271 C.ar    1  UNL1        0.0180
     22 C         143.3329  141.4714  160.6658 C.ar    1  UNL1        0.0031
     23 O         145.9855  140.9336  155.3110 O.3     1  UNL1       -0.4640
     24 C         147.0631  141.8961  154.9077 C.3     1  UNL1        0.1678
     25 C         147.4829  143.2704  154.4777 C.3     1  UNL1        0.0473
     26 C         148.5095  142.1888  154.6393 C.3     1  UNL1        0.0473
     27 C         139.0298  141.5981  164.9887 C.3     1  UNL1        0.1338
     28 C         137.4359  142.3043  163.7801 C.3     1  UNL1        0.0070
     29 C         138.4912  142.9507  164.6278 C.3     1  UNL1        0.0773
     30 C         139.5465  143.5971  165.4755 C.3     1  UNL1        0.1464
     31 O         139.0078  144.9497  165.1146 O.3     1  UNL1       -0.3535
     32 C         137.9526  144.3033  164.2669 C.3     1  UNL1        0.1464
@<TRIPOS>BOND
     1    28    29    1
     2    29    27    1
     3    27     1    1
     4     1     2   ar
     5     2     3   ar
     6     3    13    1
     7    13    14   ar
     8    14    15   ar
     9    15    16   ar
    10    16    17   ar
    11    17    18   ar
    12    18    23    1
    13    23    24    1
    14    24    25    1
    15    25    26    1
    16    18    19   ar
    17    19    20   ar
    18    20    21   ar
    19    21    22   ar
    20     3     4   ar
    21     4     5   ar
    22     5     6    1
    23     5     7   ar
    24     7     8   ar
    25     8     9   ar
    26     9    10   ar
    27    29    30    1
    28    30    31    1
    29    31    32    1
    30    32    29    1
    31    10     1   ar
    32    22    13   ar
    33    10     4   ar
    34    21    16   ar
    35    26    24    1
    36     6    11    1
    37     6    12    1
@<TRIPOS>MOLECULE
*****
 32 37 0 0 0
SMALL
GASTEIGER

@<TRIPOS>ATOM
      1 N         141.4240  142.1296  166.7137 N.ar    1  UNL1       -0.2338
      2 N         142.2019  141.3447  165.6994 N.ar    1  UNL1       -0.1679
      3 C         141.7579  141.7820  164.3350 C.ar    1  UNL1        0.1065
      4 C         140.7056  142.8373  164.5061 C.ar    1  UNL1        0.0860
      5 C         139.9087  143.6303  163.5131 C.ar    1  UNL1        0.1316
      6 N         140.1151  143.4154  162.0430 N.pl3   1  UNL1       -0.3425
      7 N         138.9054  144.6381  163.9902 N.ar    1  UNL1       -0.2093
      8 C         138.6990  144.8529  165.4603 C.ar    1  UNL1        0.2014
      9 N         139.4960  144.0598  166.4533 N.ar    1  UNL1       -0.2050
     10 C         140.4992  143.0521  165.9762 C.ar    1  UNL1        0.1653
     11 H         140.7736  142.7540  161.7298 H       1  UNL1        0.1437
     12 H         139.5920  143.9359  161.3912 H       1  UNL1        0.1437
     13 C         142.2754  141.2565  163.0288 C.ar    1  UNL1        0.0196
     14 C         143.5796  141.7572  162.4827 C.ar    1  UNL1        0.0031
     15 C         144.0969  141.2316  161.1765 C.ar    1  UNL1        0.0193
     16 C         143.3101  140.2053  160.4165 C.ar    1  UNL1        0.0844
     17 N         143.8276  139.6797  159.1103 N.ar    1  UNL1       -0.2117
     18 C         143.0407  138.6534  158.3503 C.ar    1  UNL1        0.2247
     19 C         141.7365  138.1527  158.8965 C.ar    1  UNL1        0.0577
     20 C         141.2191  138.6783  160.2026 C.ar    1  UNL1        0.0063
     21 C         142.0059  139.7046  160.9626 C.ar    1  UNL1        0.0180
     22 C         141.4885  140.2302  162.2688 C.ar    1  UNL1        0.0031
     23 O         143.5581  138.1279  157.0441 O.3     1  UNL1       -0.4640
     24 C         143.1696  136.7549  156.5814 C.3     1  UNL1        0.1678
     25 C         142.1205  135.7899  156.1142 C.3     1  UNL1        0.0473
     26 C         143.5459  135.3419  156.2471 C.3     1  UNL1        0.0473
     27 C         141.5490  142.0126  168.2039 C.3     1  UNL1        0.1338
     28 C         140.5371  140.1482  168.2206 C.3     1  UNL1        0.0070
     29 C         140.4281  141.4213  169.0064 C.3     1  UNL1        0.0773
     30 C         140.3191  142.6943  169.7922 C.3     1  UNL1        0.1464
     31 O         139.1982  142.1030  170.5946 O.3     1  UNL1       -0.3535
     32 C         139.3072  140.8300  169.8088 C.3     1  UNL1        0.1464
@<TRIPOS>BOND
     1    28    29    1
     2    29    27    1
     3    27     1    1
     4     1     2   ar
     5     2     3   ar
     6     3    13    1
     7    13    14   ar
     8    14    15   ar
     9    15    16   ar
    10    16    17   ar
    11    17    18   ar
    12    18    23    1
    13    23    24    1
    14    24    25    1
    15    25    26    1
    16    18    19   ar
    17    19    20   ar
    18    20    21   ar
    19    21    22   ar
    20     3     4   ar
    21     4     5   ar
    22     5     6    1
    23     5     7   ar
    24     7     8   ar
    25     8     9   ar
    26     9    10   ar
    27    29    30    1
    28    30    31    1
    29    31    32    1
    30    32    29    1
    31    10     1   ar
    32    22    13   ar
    33    10     4   ar
    34    21    16   ar
    35    26    24    1
    36     6    11    1
    37     6    12    1
@<TRIPOS>MOLECULE
*****
 32 37 0 0 0
SMALL
GASTEIGER

@<TRIPOS>ATOM
      1 N         140.8066  145.0408  158.4580 N.ar    1  UNL1       -0.2338
      2 N         140.9578  145.2832  159.9305 N.ar    1  UNL1       -0.1679
      3 C         140.1749  144.2297  160.6565 C.ar    1  UNL1        0.1065
      4 C         139.5398  143.3362  159.6327 C.ar    1  UNL1        0.0860
      5 C         138.6564  142.1309  159.7622 C.ar    1  UNL1        0.1316
      6 N         138.2660  141.6296  161.1210 N.pl3   1  UNL1       -0.3425
      7 N         138.1634  141.4267  158.5329 N.ar    1  UNL1       -0.2093
      8 C         138.5538  141.9280  157.1741 C.ar    1  UNL1        0.2014
      9 N         139.4372  143.1333  157.0447 N.ar    1  UNL1       -0.2050
     10 C         139.9302  143.8374  158.2739 C.ar    1  UNL1        0.1653
     11 H         138.5895  142.0918  161.9278 H       1  UNL1        0.1437
     12 H         137.6861  140.8386  161.2060 H       1  UNL1        0.1437
     13 C         140.0491  144.0937  162.1451 C.ar    1  UNL1        0.0196
     14 C         138.9652  144.8287  162.8765 C.ar    1  UNL1        0.0031
     15 C         138.8395  144.6926  164.3650 C.ar    1  UNL1        0.0193
     16 C         139.7976  143.8215  165.1221 C.ar    1  UNL1        0.0844
     17 N         139.6718  143.6854  166.6106 N.ar    1  UNL1       -0.2117
     18 C         140.6299  142.8143  167.3677 C.ar    1  UNL1        0.2247
     19 C         141.7138  142.0793  166.6362 C.ar    1  UNL1        0.0577
     20 C         141.8396  142.2154  165.1478 C.ar    1  UNL1        0.0063
     21 C         140.8815  143.0865  164.3907 C.ar    1  UNL1        0.0180
     22 C         141.0072  143.2226  162.9022 C.ar    1  UNL1        0.0031
     23 O         140.5042  142.6782  168.8562 O.3     1  UNL1       -0.4640
     24 C         140.0791  141.3709  169.4566 C.3     1  UNL1        0.1678
     25 C         140.4302  140.0464  170.0669 C.3     1  UNL1        0.0473
     26 C         138.9918  140.4312  169.8861 C.3     1  UNL1        0.0473
     27 C         141.4235  145.8582  157.3619 C.3     1  UNL1        0.1338
     28 C         141.6292  145.4159  155.2975 C.3     1  UNL1        0.0070
     29 C         140.6341  146.1730  156.1260 C.3     1  UNL1        0.0773
     30 C         139.6389  146.9301  156.9544 C.3     1  UNL1        0.1464
     31 O         138.8494  147.2449  155.7185 O.3     1  UNL1       -0.3535
     32 C         139.8446  146.4878  154.8900 C.3     1  UNL1        0.1464
@<TRIPOS>BOND
     1    28    29    1
     2    29    27    1
     3    27     1    1
     4     1     2   ar
     5     2     3   ar
     6     3    13    1
     7    13    14   ar
     8    14    15   ar
     9    15    16   ar
    10    16    17   ar
    11    17    18   ar
    12    18    23    1
    13    23    24    1
    14    24    25    1
    15    25    26    1
    16    18    19   ar
    17    19    20   ar
    18    20    21   ar
    19    21    22   ar
    20     3     4   ar
    21     4     5   ar
    22     5     6    1
    23     5     7   ar
    24     7     8   ar
    25     8     9   ar
    26     9    10   ar
    27    29    30    1
    28    30    31    1
    29    31    32    1
    30    32    29    1
    31    10     1   ar
    32    22    13   ar
    33    10     4   ar
    34    21    16   ar
    35    26    24    1
    36     6    11    1
    37     6    12    1
@<TRIPOS>MOLECULE
*****
 32 37 0 0 0
SMALL
GASTEIGER

@<TRIPOS>ATOM
      1 N         140.2976  141.7387  167.1976 N.ar    1  UNL1       -0.2338
      2 N         140.9623  142.6271  166.1882 N.ar    1  UNL1       -0.1679
      3 C         140.7303  142.0381  164.8283 C.ar    1  UNL1        0.1065
      4 C         139.9223  140.7857  164.9973 C.ar    1  UNL1        0.0860
      5 C         139.3955  139.7899  164.0069 C.ar    1  UNL1        0.1316
      6 N         139.6629  139.9750  162.5426 N.pl3   1  UNL1       -0.3425
      7 N         138.6012  138.6090  164.4809 N.ar    1  UNL1       -0.2093
      8 C         138.3338  138.4239  165.9452 C.ar    1  UNL1        0.2014
      9 N         138.8607  139.4198  166.9355 N.ar    1  UNL1       -0.2050
     10 C         139.6549  140.6006  166.4616 C.ar    1  UNL1        0.1653
     11 H         140.1842  140.7501  162.2316 H       1  UNL1        0.1437
     12 H         139.3172  139.3214  161.8926 H       1  UNL1        0.1437
     13 C         141.2204  142.6025  163.5277 C.ar    1  UNL1        0.0196
     14 C         142.5569  142.1890  162.9868 C.ar    1  UNL1        0.0031
     15 C         143.0469  142.7533  161.6863 C.ar    1  UNL1        0.0193
     16 C         142.2003  143.7312  160.9267 C.ar    1  UNL1        0.0844
     17 N         142.6903  144.2956  159.6261 N.ar    1  UNL1       -0.2117
     18 C         141.8437  145.2735  158.8665 C.ar    1  UNL1        0.2247
     19 C         140.5071  145.6870  159.4074 C.ar    1  UNL1        0.0577
     20 C         140.0172  145.1226  160.7079 C.ar    1  UNL1        0.0063
     21 C         140.8637  144.1447  161.4676 C.ar    1  UNL1        0.0180
     22 C         140.3738  143.5804  162.7681 C.ar    1  UNL1        0.0031
     23 O         142.3337  145.8378  157.5659 O.3     1  UNL1       -0.4640
     24 C         141.7895  145.3156  156.2693 C.3     1  UNL1        0.1678
     25 C         141.4240  145.5357  154.8312 C.3     1  UNL1        0.0473
     26 C         141.2127  144.1911  155.4615 C.3     1  UNL1        0.0473
     27 C         140.2790  141.9510  168.6824 C.3     1  UNL1        0.1338
     28 C         142.0566  140.8797  169.1207 C.3     1  UNL1        0.0070
     29 C         140.6383  140.8248  169.6057 C.3     1  UNL1        0.0773
     30 C         139.2200  140.7699  170.0907 C.3     1  UNL1        0.1464
     31 O         139.5793  139.6436  171.0139 O.3     1  UNL1       -0.3535
     32 C         140.9976  139.6986  170.5289 C.3     1  UNL1        0.1464
@<TRIPOS>BOND
     1    28    29    1
     2    29    27    1
     3    27     1    1
     4     1     2   ar
     5     2     3   ar
     6     3    13    1
     7    13    14   ar
     8    14    15   ar
     9    15    16   ar
    10    16    17   ar
    11    17    18   ar
    12    18    23    1
    13    23    24    1
    14    24    25    1
    15    25    26    1
    16    18    19   ar
    17    19    20   ar
    18    20    21   ar
    19    21    22   ar
    20     3     4   ar
    21     4     5   ar
    22     5     6    1
    23     5     7   ar
    24     7     8   ar
    25     8     9   ar
    26     9    10   ar
    27    29    30    1
    28    30    31    1
    29    31    32    1
    30    32    29    1
    31    10     1   ar
    32    22    13   ar
    33    10     4   ar
    34    21    16   ar
    35    26    24    1
    36     6    11    1
    37     6    12    1
