@<TRIPOS>MOLECULE
*****
 34 37 0 0 0
SMALL
GASTEIGER

@<TRIPOS>ATOM
      1 N         138.3604  138.7577  167.4643 N.pl3   1  UNL1       -0.3426
      2 C         138.9415  138.7052  166.0824 C.ar    1  UNL1        0.1253
      3 N         138.2924  137.8593  165.0275 N.ar    1  UNL1       -0.2296
      4 C         138.8734  137.8068  163.6456 C.ar    1  UNL1        0.1002
      5 C         140.1036  138.6003  163.3186 C.ar    1  UNL1        0.0193
      6 C         140.7528  139.4462  164.3736 C.ar    1  UNL1        0.0043
      7 C         140.1717  139.4987  165.7555 C.ar    1  UNL1        0.0312
      8 H         137.5530  138.2369  167.6789 H       1  UNL1        0.1437
      9 H         138.7865  139.3129  168.1567 H       1  UNL1        0.1437
     10 C         140.6847  138.5478  161.9368 C.ar    1  UNL1        0.0015
     11 C         139.7793  138.4349  160.7462 C.ar    1  UNL1        0.0002
     12 C         140.3604  138.3824  159.3643 C.ar    1  UNL1        0.0045
     13 C         141.8469  138.4429  159.1730 C.ar    1  UNL1        0.0536
     14 C         142.7523  138.5559  160.3635 C.ar    1  UNL1        0.0045
     15 C         142.1712  138.6084  161.7454 C.ar    1  UNL1        0.0002
     16 C         142.4279  138.3905  157.7911 C.2     1  UNL1        0.2491
     17 O         142.4622  139.6281  156.9444 O.2     1  UNL1       -0.2699
     18 N         142.9748  137.1003  157.2559 N.am    1  UNL1       -0.2732
     19 C         142.9406  135.8626  158.1026 C.3     1  UNL1        0.1108
     20 C         143.4874  134.5724  157.5674 C.3     1  UNL1        0.0904
     21 N         144.0685  134.5200  156.1855 N.3     1  UNL1       -0.2946
     22 C         144.1027  135.7577  155.3389 C.3     1  UNL1        0.0904
     23 C         143.5558  137.0479  155.8740 C.3     1  UNL1        0.1108
     24 H         143.5332  133.8234  155.6673 H       1  UNL1        0.1233
     25 C         140.8210  140.3446  166.8105 C.ar    1  UNL1        0.0027
     26 C         141.9536  139.7913  167.6235 C.ar    1  UNL1        0.0000
     27 C         142.6028  140.6372  168.6784 C.ar    1  UNL1        0.0039
     28 C         142.1194  142.0365  168.9204 C.ar    1  UNL1        0.0714
     29 C         140.9868  142.5898  168.1074 C.ar    1  UNL1        0.0039
     30 C         140.3376  141.7438  167.0524 C.ar    1  UNL1        0.0000
     31 C         142.7686  142.8824  169.9753 C.3     1  UNL1        0.4186
     32 F         143.4179  143.7283  171.0303 F       1  UNL1       -0.1659
     33 F         143.9654  141.9783  169.9638 F       1  UNL1       -0.1659
     34 F         141.5718  143.7865  169.9869 F       1  UNL1       -0.1659
@<TRIPOS>BOND
     1     1     2    1
     2     2     3   ar
     3     3     4   ar
     4     4     5   ar
     5     5    10    1
     6    10    11   ar
     7    11    12   ar
     8    12    13   ar
     9    13    16    1
    10    16    17    2
    11    16    18   am
    12    18    19    1
    13    19    20    1
    14    20    21    1
    15    21    22    1
    16    22    23    1
    17    13    14   ar
    18    14    15   ar
    19     5     6   ar
    20     6     7   ar
    21     7    25    1
    22    25    26   ar
    23    26    27   ar
    24    27    28   ar
    25    28    31    1
    26    31    32    1
    27    31    33    1
    28    31    34    1
    29    28    29   ar
    30    29    30   ar
    31     7     2   ar
    32    30    25   ar
    33    15    10   ar
    34    23    18    1
    35     1     8    1
    36     1     9    1
    37    21    24    1
@<TRIPOS>MOLECULE
*****
 34 37 0 0 0
SMALL
GASTEIGER

@<TRIPOS>ATOM
      1 N         138.3532  138.9204  167.5459 N.pl3   1  UNL1       -0.3426
      2 C         138.9612  138.8092  166.1792 C.ar    1  UNL1        0.1253
      3 N         138.3024  137.9611  165.1320 N.ar    1  UNL1       -0.2296
      4 C         138.9105  137.8499  163.7653 C.ar    1  UNL1        0.1002
      5 C         140.1773  138.5868  163.4458 C.ar    1  UNL1        0.0193
      6 C         140.8361  139.4349  164.4930 C.ar    1  UNL1        0.0043
      7 C         140.2280  139.5461  165.8597 C.ar    1  UNL1        0.0312
      8 H         137.5217  138.4368  167.7556 H       1  UNL1        0.1437
      9 H         138.7856  139.4770  168.2332 H       1  UNL1        0.1437
     10 C         140.7854  138.4756  162.0790 C.ar    1  UNL1        0.0015
     11 C         140.0257  138.9574  160.8787 C.ar    1  UNL1        0.0002
     12 C         140.6338  138.8462  159.5120 C.ar    1  UNL1        0.0045
     13 C         142.0015  138.2532  159.3456 C.ar    1  UNL1        0.0536
     14 C         142.7611  137.7714  160.5459 C.ar    1  UNL1        0.0045
     15 C         142.1531  137.8826  161.9126 C.ar    1  UNL1        0.0002
     16 C         142.6095  138.1420  157.9789 C.2     1  UNL1        0.2491
     17 O         142.3657  136.9179  157.1469 O.2     1  UNL1       -0.2699
     18 N         143.4614  139.2548  157.4442 N.am    1  UNL1       -0.2732
     19 C         143.7052  140.4789  158.2762 C.3     1  UNL1        0.1108
     20 C         144.5570  141.5917  157.7415 C.3     1  UNL1        0.0904
     21 N         145.1651  141.4805  156.3748 N.3     1  UNL1       -0.2946
     22 C         144.9213  140.2565  155.5428 C.3     1  UNL1        0.0904
     23 C         144.0694  139.1436  156.0775 C.3     1  UNL1        0.1108
     24 H         146.1750  141.5587  156.4946 H       1  UNL1        0.1233
     25 C         140.8869  140.3942  166.9070 C.ar    1  UNL1        0.0027
     26 C         140.3938  141.7875  167.1631 C.ar    1  UNL1        0.0000
     27 C         141.0525  142.6356  168.2102 C.ar    1  UNL1        0.0039
     28 C         142.2045  142.0905  169.0014 C.ar    1  UNL1        0.0714
     29 C         142.6977  140.6972  168.7453 C.ar    1  UNL1        0.0039
     30 C         142.0388  139.8491  167.6980 C.ar    1  UNL1        0.0000
     31 C         142.8633  142.9386  170.0486 C.3     1  UNL1        0.4186
     32 F         143.5221  143.7867  171.0957 F       1  UNL1       -0.1659
     33 F         144.1020  142.0984  169.9498 F       1  UNL1       -0.1659
     34 F         141.6247  143.7788  170.1473 F       1  UNL1       -0.1659
@<TRIPOS>BOND
     1     1     2    1
     2     2     3   ar
     3     3     4   ar
     4     4     5   ar
     5     5    10    1
     6    10    11   ar
     7    11    12   ar
     8    12    13   ar
     9    13    16    1
    10    16    17    2
    11    16    18   am
    12    18    19    1
    13    19    20    1
    14    20    21    1
    15    21    22    1
    16    22    23    1
    17    13    14   ar
    18    14    15   ar
    19     5     6   ar
    20     6     7   ar
    21     7    25    1
    22    25    26   ar
    23    26    27   ar
    24    27    28   ar
    25    28    31    1
    26    31    32    1
    27    31    33    1
    28    31    34    1
    29    28    29   ar
    30    29    30   ar
    31     7     2   ar
    32    30    25   ar
    33    15    10   ar
    34    23    18    1
    35     1     8    1
    36     1     9    1
    37    21    24    1
@<TRIPOS>MOLECULE
*****
 34 37 0 0 0
SMALL
GASTEIGER

@<TRIPOS>ATOM
      1 N         141.0593  136.7085  164.5402 N.pl3   1  UNL1       -0.3426
      2 C         141.0976  137.8817  163.6063 C.ar    1  UNL1        0.1253
      3 N         141.2161  137.6597  162.1276 N.ar    1  UNL1       -0.2296
      4 C         141.2544  138.8329  161.1937 C.ar    1  UNL1        0.1002
      5 C         141.1741  140.2281  161.7385 C.ar    1  UNL1        0.0193
      6 C         141.0556  140.4501  163.2172 C.ar    1  UNL1        0.0043
      7 C         141.0173  139.2769  164.1511 C.ar    1  UNL1        0.0312
      8 H         141.1120  135.7928  164.1826 H       1  UNL1        0.1437
      9 H         140.9815  136.8542  165.5107 H       1  UNL1        0.1437
     10 C         141.2124  141.4013  160.8046 C.ar    1  UNL1        0.0015
     11 C         142.0439  141.3405  159.5577 C.ar    1  UNL1        0.0002
     12 C         142.0822  142.5137  158.6238 C.ar    1  UNL1        0.0045
     13 C         141.2890  143.7477  158.9369 C.ar    1  UNL1        0.0536
     14 C         140.4575  143.8085  160.1838 C.ar    1  UNL1        0.0045
     15 C         140.4192  142.6353  161.1177 C.ar    1  UNL1        0.0002
     16 C         141.3272  144.9209  158.0030 C.2     1  UNL1        0.2491
     17 O         142.3876  145.9701  158.1599 O.2     1  UNL1       -0.2699
     18 N         140.3051  145.0449  156.9122 N.am    1  UNL1       -0.2732
     19 C         139.2447  143.9956  156.7552 C.3     1  UNL1        0.1108
     20 C         138.2226  144.1195  155.6644 C.3     1  UNL1        0.0904
     21 N         138.2609  145.2927  154.7305 N.3     1  UNL1       -0.2946
     22 C         139.3213  146.3420  154.8874 C.3     1  UNL1        0.0904
     23 C         140.3434  146.2181  155.9783 C.3     1  UNL1        0.1108
     24 H         137.3621  145.7672  154.8168 H       1  UNL1        0.1233
     25 C         140.8987  139.4990  165.6299 C.ar    1  UNL1        0.0027
     26 C         139.5479  139.6889  166.2538 C.ar    1  UNL1        0.0000
     27 C         139.4293  139.9110  167.7325 C.ar    1  UNL1        0.0039
     28 C         140.6615  139.9431  168.5874 C.ar    1  UNL1        0.0714
     29 C         142.0123  139.7532  167.9634 C.ar    1  UNL1        0.0039
     30 C         142.1309  139.5311  166.4846 C.ar    1  UNL1        0.0000
     31 C         140.5429  140.1652  170.0660 C.3     1  UNL1        0.4186
     32 F         140.4243  140.3873  171.5447 F       1  UNL1       -0.1659
     33 F         141.5770  139.1059  170.3081 F       1  UNL1       -0.1659
     34 F         139.5089  141.2245  169.8240 F       1  UNL1       -0.1659
@<TRIPOS>BOND
     1     1     2    1
     2     2     3   ar
     3     3     4   ar
     4     4     5   ar
     5     5    10    1
     6    10    11   ar
     7    11    12   ar
     8    12    13   ar
     9    13    16    1
    10    16    17    2
    11    16    18   am
    12    18    19    1
    13    19    20    1
    14    20    21    1
    15    21    22    1
    16    22    23    1
    17    13    14   ar
    18    14    15   ar
    19     5     6   ar
    20     6     7   ar
    21     7    25    1
    22    25    26   ar
    23    26    27   ar
    24    27    28   ar
    25    28    31    1
    26    31    32    1
    27    31    33    1
    28    31    34    1
    29    28    29   ar
    30    29    30   ar
    31     7     2   ar
    32    30    25   ar
    33    15    10   ar
    34    23    18    1
    35     1     8    1
    36     1     9    1
    37    21    24    1
@<TRIPOS>MOLECULE
*****
 34 37 0 0 0
SMALL
GASTEIGER

@<TRIPOS>ATOM
      1 N         143.8658  144.8750  164.3149 N.pl3   1  UNL1       -0.3426
      2 C         143.4018  143.8838  163.2892 C.ar    1  UNL1        0.1253
      3 N         143.9436  143.9413  161.8917 N.ar    1  UNL1       -0.2296
      4 C         143.4796  142.9500  160.8660 C.ar    1  UNL1        0.1002
      5 C         142.4737  141.9012  161.2378 C.ar    1  UNL1        0.0193
      6 C         141.9318  141.8438  162.6353 C.ar    1  UNL1        0.0043
      7 C         142.3959  142.8350  163.6610 C.ar    1  UNL1        0.0312
      8 H         144.5260  145.5634  164.0708 H       1  UNL1        0.1437
      9 H         143.5101  144.8373  165.2321 H       1  UNL1        0.1437
     10 C         142.0097  140.9100  160.2121 C.ar    1  UNL1        0.0015
     11 C         141.8309  139.4691  160.5886 C.ar    1  UNL1        0.0002
     12 C         141.3668  138.4778  159.5629 C.ar    1  UNL1        0.0045
     13 C         141.0816  138.9274  158.1607 C.ar    1  UNL1        0.0536
     14 C         141.2604  140.3683  157.7841 C.ar    1  UNL1        0.0045
     15 C         141.7244  141.3596  158.8098 C.ar    1  UNL1        0.0002
     16 C         140.6176  137.9362  157.1350 C.2     1  UNL1        0.2491
     17 O         139.1506  137.6980  156.9320 O.2     1  UNL1       -0.2699
     18 N         141.6205  137.1831  156.3122 N.am    1  UNL1       -0.2732
     19 C         143.0875  137.4212  156.5152 C.3     1  UNL1        0.1108
     20 C         144.0905  136.6681  155.6925 C.3     1  UNL1        0.0904
     21 N         143.6264  135.6768  154.6668 N.3     1  UNL1       -0.2946
     22 C         142.1595  135.4386  154.4638 C.3     1  UNL1        0.0904
     23 C         141.1565  136.1918  155.2865 C.3     1  UNL1        0.1108
     24 H         144.0386  134.7783  154.9181 H       1  UNL1        0.1233
     25 C         141.8540  142.7775  165.0585 C.ar    1  UNL1        0.0027
     26 C         142.6796  142.1798  166.1590 C.ar    1  UNL1        0.0000
     27 C         142.1378  142.1223  167.5565 C.ar    1  UNL1        0.0039
     28 C         140.7702  142.6624  167.8536 C.ar    1  UNL1        0.0714
     29 C         139.9446  143.2601  166.7531 C.ar    1  UNL1        0.0039
     30 C         140.4865  143.3176  165.3555 C.ar    1  UNL1        0.0000
     31 C         140.2284  142.6049  169.2511 C.3     1  UNL1        0.4186
     32 F         139.6866  142.5474  170.6486 F       1  UNL1       -0.1659
     33 F         139.9326  141.1448  169.0763 F       1  UNL1       -0.1659
     34 F         140.5242  144.0650  169.4259 F       1  UNL1       -0.1659
@<TRIPOS>BOND
     1     1     2    1
     2     2     3   ar
     3     3     4   ar
     4     4     5   ar
     5     5    10    1
     6    10    11   ar
     7    11    12   ar
     8    12    13   ar
     9    13    16    1
    10    16    17    2
    11    16    18   am
    12    18    19    1
    13    19    20    1
    14    20    21    1
    15    21    22    1
    16    22    23    1
    17    13    14   ar
    18    14    15   ar
    19     5     6   ar
    20     6     7   ar
    21     7    25    1
    22    25    26   ar
    23    26    27   ar
    24    27    28   ar
    25    28    31    1
    26    31    32    1
    27    31    33    1
    28    31    34    1
    29    28    29   ar
    30    29    30   ar
    31     7     2   ar
    32    30    25   ar
    33    15    10   ar
    34    23    18    1
    35     1     8    1
    36     1     9    1
    37    21    24    1
@<TRIPOS>MOLECULE
*****
 34 37 0 0 0
SMALL
GASTEIGER

@<TRIPOS>ATOM
      1 N         137.7969  144.3676  165.0472 N.pl3   1  UNL1       -0.3426
      2 C         138.8343  144.0455  164.0128 C.ar    1  UNL1        0.1253
      3 N         138.8157  144.7481  162.6877 N.ar    1  UNL1       -0.2296
      4 C         139.8532  144.4260  161.6533 C.ar    1  UNL1        0.1002
      5 C         140.9092  143.4013  161.9440 C.ar    1  UNL1        0.0193
      6 C         140.9279  142.6986  163.2691 C.ar    1  UNL1        0.0043
      7 C         139.8904  143.0208  164.3035 C.ar    1  UNL1        0.0312
      8 H         137.1038  145.0402  164.8563 H       1  UNL1        0.1437
      9 H         137.8091  143.9065  165.9169 H       1  UNL1        0.1437
     10 C         141.9467  143.0791  160.9096 C.ar    1  UNL1        0.0015
     11 C         141.9457  143.8026  159.5957 C.ar    1  UNL1        0.0002
     12 C         142.9831  143.4805  158.5613 C.ar    1  UNL1        0.0045
     13 C         144.0216  142.4349  158.8409 C.ar    1  UNL1        0.0536
     14 C         144.0226  141.7114  160.1548 C.ar    1  UNL1        0.0045
     15 C         142.9851  142.0335  161.1892 C.ar    1  UNL1        0.0002
     16 C         145.0590  142.1128  157.8065 C.2     1  UNL1        0.2491
     17 O         146.3459  142.8825  157.7698 O.2     1  UNL1       -0.2699
     18 N         144.8096  141.0209  156.8087 N.am    1  UNL1       -0.2732
     19 C         143.5227  140.2510  156.8454 C.3     1  UNL1        0.1108
     20 C         143.2732  139.1591  155.8477 C.3     1  UNL1        0.0904
     21 N         144.3107  138.8370  154.8133 N.3     1  UNL1       -0.2946
     22 C         145.5975  139.6068  154.7766 C.3     1  UNL1        0.0904
     23 C         145.8470  140.6987  155.7744 C.3     1  UNL1        0.1108
     24 H         143.8674  138.9610  153.9031 H       1  UNL1        0.1233
     25 C         139.9091  142.3181  165.6286 C.ar    1  UNL1        0.0027
     26 C         140.5505  142.9731  166.8159 C.ar    1  UNL1        0.0000
     27 C         140.5692  142.2705  168.1410 C.ar    1  UNL1        0.0039
     28 C         139.9465  140.9128  168.2789 C.ar    1  UNL1        0.0714
     29 C         139.3051  140.2578  167.0917 C.ar    1  UNL1        0.0039
     30 C         139.2864  140.9605  165.7665 C.ar    1  UNL1        0.0000
     31 C         139.9652  140.2102  169.6040 C.3     1  UNL1        0.4186
     32 F         139.9839  139.5076  170.9291 F       1  UNL1       -0.1659
     33 F         138.6861  140.8948  169.9851 F       1  UNL1       -0.1659
     34 F         141.2442  139.5256  169.2230 F       1  UNL1       -0.1659
@<TRIPOS>BOND
     1     1     2    1
     2     2     3   ar
     3     3     4   ar
     4     4     5   ar
     5     5    10    1
     6    10    11   ar
     7    11    12   ar
     8    12    13   ar
     9    13    16    1
    10    16    17    2
    11    16    18   am
    12    18    19    1
    13    19    20    1
    14    20    21    1
    15    21    22    1
    16    22    23    1
    17    13    14   ar
    18    14    15   ar
    19     5     6   ar
    20     6     7   ar
    21     7    25    1
    22    25    26   ar
    23    26    27   ar
    24    27    28   ar
    25    28    31    1
    26    31    32    1
    27    31    33    1
    28    31    34    1
    29    28    29   ar
    30    29    30   ar
    31     7     2   ar
    32    30    25   ar
    33    15    10   ar
    34    23    18    1
    35     1     8    1
    36     1     9    1
    37    21    24    1
@<TRIPOS>MOLECULE
*****
 34 37 0 0 0
SMALL
GASTEIGER

@<TRIPOS>ATOM
      1 N         144.6198  137.0770  155.0267 N.pl3   1  UNL1       -0.3426
      2 C         143.7397  137.7454  156.0409 C.ar    1  UNL1        0.1253
      3 N         143.9093  139.2066  156.3343 N.ar    1  UNL1       -0.2296
      4 C         143.0292  139.8751  157.3485 C.ar    1  UNL1        0.1002
      5 C         141.9795  139.0823  158.0693 C.ar    1  UNL1        0.0193
      6 C         141.8099  137.6211  157.7760 C.ar    1  UNL1        0.0043
      7 C         142.6900  136.9527  156.7618 C.ar    1  UNL1        0.0312
      8 H         145.3088  137.5973  154.5536 H       1  UNL1        0.1437
      9 H         144.5085  136.1179  154.8342 H       1  UNL1        0.1437
     10 C         141.0994  139.7507  159.0835 C.ar    1  UNL1        0.0015
     11 C         140.9645  139.1686  160.4594 C.ar    1  UNL1        0.0002
     12 C         140.0843  139.8371  161.4736 C.ar    1  UNL1        0.0045
     13 C         139.3392  141.0876  161.1119 C.ar    1  UNL1        0.0536
     14 C         139.4741  141.6697  159.7361 C.ar    1  UNL1        0.0045
     15 C         140.3542  141.0013  158.7219 C.ar    1  UNL1        0.0002
     16 C         138.4590  141.7560  162.1261 C.2     1  UNL1        0.2491
     17 O         137.0573  141.2674  162.3410 O.2     1  UNL1       -0.2699
     18 N         138.9807  142.9131  162.9255 N.am    1  UNL1       -0.2732
     19 C         140.3825  143.4018  162.7106 C.3     1  UNL1        0.1108
     20 C         140.9042  144.5589  163.5100 C.3     1  UNL1        0.0904
     21 N         140.0241  145.2273  164.5242 N.3     1  UNL1       -0.2946
     22 C         138.6223  144.7387  164.7390 C.3     1  UNL1        0.0904
     23 C         138.1006  143.5815  163.9397 C.3     1  UNL1        0.1108
     24 H         139.9557  146.2084  164.2537 H       1  UNL1        0.1233
     25 C         142.5204  135.4914  156.4684 C.ar    1  UNL1        0.0027
     26 C         143.3073  134.4750  157.2416 C.ar    1  UNL1        0.0000
     27 C         143.1377  133.0138  156.9483 C.ar    1  UNL1        0.0039
     28 C         142.1813  132.5689  155.8818 C.ar    1  UNL1        0.0714
     29 C         141.3944  133.5853  155.1086 C.ar    1  UNL1        0.0039
     30 C         141.5640  135.0466  155.4020 C.ar    1  UNL1        0.0000
     31 C         142.0117  131.1077  155.5885 C.3     1  UNL1        0.4186
     32 F         141.8421  129.6465  155.2952 F       1  UNL1       -0.1659
     33 F         141.2548  131.4464  154.3386 F       1  UNL1       -0.1659
     34 F         142.7685  130.7690  156.8385 F       1  UNL1       -0.1659
@<TRIPOS>BOND
     1     1     2    1
     2     2     3   ar
     3     3     4   ar
     4     4     5   ar
     5     5    10    1
     6    10    11   ar
     7    11    12   ar
     8    12    13   ar
     9    13    16    1
    10    16    17    2
    11    16    18   am
    12    18    19    1
    13    19    20    1
    14    20    21    1
    15    21    22    1
    16    22    23    1
    17    13    14   ar
    18    14    15   ar
    19     5     6   ar
    20     6     7   ar
    21     7    25    1
    22    25    26   ar
    23    26    27   ar
    24    27    28   ar
    25    28    31    1
    26    31    32    1
    27    31    33    1
    28    31    34    1
    29    28    29   ar
    30    29    30   ar
    31     7     2   ar
    32    30    25   ar
    33    15    10   ar
    34    23    18    1
    35     1     8    1
    36     1     9    1
    37    21    24    1
@<TRIPOS>MOLECULE
*****
 34 37 0 0 0
SMALL
GASTEIGER

@<TRIPOS>ATOM
      1 N         143.2960  139.6145  155.8017 N.pl3   1  UNL1       -0.3426
      2 C         143.3038  139.4728  157.2949 C.ar    1  UNL1        0.1253
      3 N         143.7061  140.6330  158.1563 N.ar    1  UNL1       -0.2296
      4 C         143.7139  140.4913  159.6496 C.ar    1  UNL1        0.1002
      5 C         143.3193  139.1895  160.2815 C.ar    1  UNL1        0.0193
      6 C         142.9169  138.0293  159.4201 C.ar    1  UNL1        0.0043
      7 C         142.9092  138.1709  157.9268 C.ar    1  UNL1        0.0312
      8 H         143.5551  140.4690  155.3869 H       1  UNL1        0.1437
      9 H         143.0320  138.8530  155.2363 H       1  UNL1        0.1437
     10 C         143.3270  139.0478  161.7748 C.ar    1  UNL1        0.0015
     11 C         144.3175  139.8186  162.5961 C.ar    1  UNL1        0.0002
     12 C         144.3253  139.6769  164.0894 C.ar    1  UNL1        0.0045
     13 C         143.3425  138.7645  164.7613 C.ar    1  UNL1        0.0536
     14 C         142.3519  137.9937  163.9399 C.ar    1  UNL1        0.0045
     15 C         142.3442  138.1354  162.4467 C.ar    1  UNL1        0.0002
     16 C         143.3502  138.6228  166.2546 C.2     1  UNL1        0.2491
     17 O         144.2760  137.6414  166.9101 O.2     1  UNL1       -0.2699
     18 N         142.4322  139.4626  167.0924 N.am    1  UNL1       -0.2732
     19 C         141.5063  140.4441  166.4369 C.3     1  UNL1        0.1108
     20 C         140.5883  141.2838  167.2747 C.3     1  UNL1        0.0904
     21 N         140.5960  141.1422  168.7680 N.3     1  UNL1       -0.2946
     22 C         141.5218  140.1607  169.4235 C.3     1  UNL1        0.0904
     23 C         142.4399  139.3209  168.5857 C.3     1  UNL1        0.1108
     24 H         139.6489  140.8831  169.0441 H       1  UNL1        0.1233
     25 C         142.5068  137.0106  157.0655 C.ar    1  UNL1        0.0027
     26 C         143.4518  135.8634  156.8633 C.ar    1  UNL1        0.0000
     27 C         143.0494  134.7031  156.0020 C.ar    1  UNL1        0.0039
     28 C         141.7021  134.6901  155.3428 C.ar    1  UNL1        0.0714
     29 C         140.7571  135.8373  155.5449 C.ar    1  UNL1        0.0039
     30 C         141.1595  136.9976  156.4063 C.ar    1  UNL1        0.0000
     31 C         141.2998  133.5298  154.4815 C.3     1  UNL1        0.4186
     32 F         140.8975  132.3696  153.6202 F       1  UNL1       -0.1659
     33 F         141.5632  134.3501  153.2536 F       1  UNL1       -0.1659
     34 F         141.0364  132.7096  155.7094 F       1  UNL1       -0.1659
@<TRIPOS>BOND
     1     1     2    1
     2     2     3   ar
     3     3     4   ar
     4     4     5   ar
     5     5    10    1
     6    10    11   ar
     7    11    12   ar
     8    12    13   ar
     9    13    16    1
    10    16    17    2
    11    16    18   am
    12    18    19    1
    13    19    20    1
    14    20    21    1
    15    21    22    1
    16    22    23    1
    17    13    14   ar
    18    14    15   ar
    19     5     6   ar
    20     6     7   ar
    21     7    25    1
    22    25    26   ar
    23    26    27   ar
    24    27    28   ar
    25    28    31    1
    26    31    32    1
    27    31    33    1
    28    31    34    1
    29    28    29   ar
    30    29    30   ar
    31     7     2   ar
    32    30    25   ar
    33    15    10   ar
    34    23    18    1
    35     1     8    1
    36     1     9    1
    37    21    24    1
@<TRIPOS>MOLECULE
*****
 34 37 0 0 0
SMALL
GASTEIGER

@<TRIPOS>ATOM
      1 N         144.0032  145.0209  164.5106 N.pl3   1  UNL1       -0.3426
      2 C         143.7781  143.9373  163.4981 C.ar    1  UNL1        0.1253
      3 N         144.4544  144.0078  162.1612 N.ar    1  UNL1       -0.2296
      4 C         144.2294  142.9242  161.1487 C.ar    1  UNL1        0.1002
      5 C         143.3279  141.7700  161.4732 C.ar    1  UNL1        0.0193
      6 C         142.6516  141.6995  162.8102 C.ar    1  UNL1        0.0043
      7 C         142.8767  142.7831  163.8226 C.ar    1  UNL1        0.0312
      8 H         144.5948  145.7784  164.2976 H       1  UNL1        0.1437
      9 H         143.5592  144.9746  165.3881 H       1  UNL1        0.1437
     10 C         143.1029  140.6864  160.4607 C.ar    1  UNL1        0.0015
     11 C         143.6355  140.8399  159.0669 C.ar    1  UNL1        0.0002
     12 C         143.4104  139.7563  158.0545 C.ar    1  UNL1        0.0045
     13 C         142.6527  138.5192  158.4358 C.ar    1  UNL1        0.0536
     14 C         142.1200  138.3657  159.8295 C.ar    1  UNL1        0.0045
     15 C         142.3451  139.4494  160.8420 C.ar    1  UNL1        0.0002
     16 C         142.4276  137.4356  157.4233 C.2     1  UNL1        0.2491
     17 O         143.4012  136.3000  157.3111 O.2     1  UNL1       -0.2699
     18 N         141.2290  137.4875  156.5230 N.am    1  UNL1       -0.2732
     19 C         140.2554  138.6231  156.6352 C.3     1  UNL1        0.1108
     20 C         139.0567  138.6750  155.7349 C.3     1  UNL1        0.0904
     21 N         138.8316  137.5914  154.7225 N.3     1  UNL1       -0.2946
     22 C         139.8052  136.4559  154.6102 C.3     1  UNL1        0.0904
     23 C         141.0039  136.4039  155.5105 C.3     1  UNL1        0.1108
     24 H         138.8005  138.0439  153.8088 H       1  UNL1        0.1233
     25 C         142.2003  142.7126  165.1597 C.ar    1  UNL1        0.0027
     26 C         142.9442  142.1825  166.3494 C.ar    1  UNL1        0.0000
     27 C         142.2678  142.1119  167.6864 C.ar    1  UNL1        0.0039
     28 C         140.8475  142.5714  167.8337 C.ar    1  UNL1        0.0714
     29 C         140.1036  143.1015  166.6439 C.ar    1  UNL1        0.0039
     30 C         140.7800  143.1721  165.3068 C.ar    1  UNL1        0.0000
     31 C         140.1712  142.5009  169.1706 C.3     1  UNL1        0.4186
     32 F         139.4949  142.4303  170.5076 F       1  UNL1       -0.1659
     33 F         140.0439  141.0131  169.0277 F       1  UNL1       -0.1659
     34 F         140.2984  143.9886  169.3136 F       1  UNL1       -0.1659
@<TRIPOS>BOND
     1     1     2    1
     2     2     3   ar
     3     3     4   ar
     4     4     5   ar
     5     5    10    1
     6    10    11   ar
     7    11    12   ar
     8    12    13   ar
     9    13    16    1
    10    16    17    2
    11    16    18   am
    12    18    19    1
    13    19    20    1
    14    20    21    1
    15    21    22    1
    16    22    23    1
    17    13    14   ar
    18    14    15   ar
    19     5     6   ar
    20     6     7   ar
    21     7    25    1
    22    25    26   ar
    23    26    27   ar
    24    27    28   ar
    25    28    31    1
    26    31    32    1
    27    31    33    1
    28    31    34    1
    29    28    29   ar
    30    29    30   ar
    31     7     2   ar
    32    30    25   ar
    33    15    10   ar
    34    23    18    1
    35     1     8    1
    36     1     9    1
    37    21    24    1
@<TRIPOS>MOLECULE
*****
 34 37 0 0 0
SMALL
GASTEIGER

@<TRIPOS>ATOM
      1 N         143.8437  139.0118  165.2206 N.pl3   1  UNL1       -0.3426
      2 C         143.5603  139.6857  163.9109 C.ar    1  UNL1        0.1253
      3 N         144.6940  140.1588  163.0501 N.ar    1  UNL1       -0.2296
      4 C         144.4106  140.8328  161.7404 C.ar    1  UNL1        0.1002
      5 C         142.9936  141.0337  161.2914 C.ar    1  UNL1        0.0193
      6 C         141.8600  140.5607  162.1522 C.ar    1  UNL1        0.0043
      7 C         142.1433  139.8867  163.4619 C.ar    1  UNL1        0.0312
      8 H         144.7738  138.8799  165.5153 H       1  UNL1        0.1437
      9 H         143.0996  138.7013  165.7856 H       1  UNL1        0.1437
     10 C         142.7103  141.7077  159.9816 C.ar    1  UNL1        0.0015
     11 C         143.6926  142.6897  159.4155 C.ar    1  UNL1        0.0002
     12 C         143.4092  143.3637  158.1058 C.ar    1  UNL1        0.0045
     13 C         142.1435  143.0557  157.3621 C.ar    1  UNL1        0.0536
     14 C         141.1612  142.0736  157.9283 C.ar    1  UNL1        0.0045
     15 C         141.4445  141.3997  159.2380 C.ar    1  UNL1        0.0002
     16 C         141.8602  143.7297  156.0524 C.2     1  UNL1        0.2491
     17 O         142.3969  143.1483  154.7781 O.2     1  UNL1       -0.2699
     18 N         141.0400  144.9851  156.0169 N.am    1  UNL1       -0.2732
     19 C         140.5032  145.5666  157.2912 C.3     1  UNL1        0.1108
     20 C         139.6831  146.8220  157.2557 C.3     1  UNL1        0.0904
     21 N         139.3997  147.4959  155.9460 N.3     1  UNL1       -0.2946
     22 C         139.9365  146.9145  154.6717 C.3     1  UNL1        0.0904
     23 C         140.7567  145.6591  154.7071 C.3     1  UNL1        0.1108
     24 H         139.7703  148.4436  156.0163 H       1  UNL1        0.1233
     25 C         141.0096  139.4136  164.3227 C.ar    1  UNL1        0.0027
     26 C         140.5339  140.2583  165.4674 C.ar    1  UNL1        0.0000
     27 C         139.4002  139.7853  166.3282 C.ar    1  UNL1        0.0039
     28 C         138.7421  138.4675  166.0443 C.ar    1  UNL1        0.0714
     29 C         139.2177  137.6229  164.8996 C.ar    1  UNL1        0.0039
     30 C         140.3515  138.0959  164.0388 C.ar    1  UNL1        0.0000
     31 C         137.6084  137.9945  166.9050 C.3     1  UNL1        0.4186
     32 F         136.4747  137.5215  167.7658 F       1  UNL1       -0.1659
     33 F         137.4720  139.3722  167.4824 F       1  UNL1       -0.1659
     34 F         137.7449  136.6169  166.3277 F       1  UNL1       -0.1659
@<TRIPOS>BOND
     1     1     2    1
     2     2     3   ar
     3     3     4   ar
     4     4     5   ar
     5     5    10    1
     6    10    11   ar
     7    11    12   ar
     8    12    13   ar
     9    13    16    1
    10    16    17    2
    11    16    18   am
    12    18    19    1
    13    19    20    1
    14    20    21    1
    15    21    22    1
    16    22    23    1
    17    13    14   ar
    18    14    15   ar
    19     5     6   ar
    20     6     7   ar
    21     7    25    1
    22    25    26   ar
    23    26    27   ar
    24    27    28   ar
    25    28    31    1
    26    31    32    1
    27    31    33    1
    28    31    34    1
    29    28    29   ar
    30    29    30   ar
    31     7     2   ar
    32    30    25   ar
    33    15    10   ar
    34    23    18    1
    35     1     8    1
    36     1     9    1
    37    21    24    1
