@<TRIPOS>MOLECULE
*****
 33 36 0 0 0
SMALL
GASTEIGER

@<TRIPOS>ATOM
      1 C         139.7056  142.1176  164.1467 C.ar    1  UNL1        0.0020
      2 C         138.9438  143.0053  165.0857 C.ar    1  UNL1       -0.0000
      3 C         137.9437  143.9846  164.5464 C.ar    1  UNL1        0.0031
      4 C         137.7054  144.0761  163.0683 C.ar    1  UNL1        0.0366
      5 C         138.4672  143.1884  162.1294 C.ar    1  UNL1        0.1346
      6 C         139.4673  142.2091  162.6686 C.ar    1  UNL1        0.0137
      7 C         140.2291  141.3213  161.7297 C.3     1  UNL1        0.0528
      8 C         139.9907  141.4128  160.2516 C.3     1  UNL1        0.1200
      9 C         138.9906  142.3921  159.7124 C.3     1  UNL1        0.2250
     10 O         138.2288  143.2799  160.6513 O.3     1  UNL1       -0.4740
     11 C         143.7061  138.2003  166.3035 C.3     1  UNL1        0.0737
     12 C         142.7060  139.1796  165.7643 C.ar    1  UNL1        0.1396
     13 N         143.1372  140.5704  165.4043 N.ar    1  UNL1       -0.2291
     14 C         142.1370  141.5498  164.8651 C.ar    1  UNL1        0.1017
     15 C         140.7058  141.1382  164.6859 C.ar    1  UNL1        0.0381
     16 C         140.2746  139.7474  165.0459 C.ar    1  UNL1        0.1017
     17 N         141.2747  138.7681  165.5851 N.ar    1  UNL1       -0.2291
     18 N         140.7525  140.5251  159.3127 N.am    1  UNL1       -0.2986
     19 C         140.1730  139.2077  158.8898 C.2     1  UNL1        0.2474
     20 O         138.8317  138.7782  159.4059 O.2     1  UNL1       -0.2701
     21 H         141.6328  140.8070  158.9740 H       1  UNL1        0.1498
     22 C         140.9348  138.3200  157.9509 C.ar    1  UNL1        0.0727
     23 C         140.2040  137.5339  156.9030 C.ar    1  UNL1        0.0109
     24 C         140.9658  136.6462  155.9641 C.ar    1  UNL1        0.0579
     25 C         142.4583  136.5445  156.0730 C.ar    1  UNL1        0.2251
     26 N         143.1891  137.3306  157.1209 N.ar    1  UNL1       -0.2100
     27 C         142.4273  138.2183  158.0599 C.ar    1  UNL1        0.1065
     28 O         143.2201  135.6568  155.1341 O.3     1  UNL1       -0.4509
     29 C         142.7209  134.2735  154.8387 C.3     1  UNL1        0.3095
     30 C         142.6615  133.2482  155.9320 C.3     1  UNL1        0.4381
     31 F         142.6021  132.2230  157.0253 F       1  UNL1       -0.1663
     32 F         144.1473  133.3515  156.1096 F       1  UNL1       -0.1663
     33 F         141.1757  133.1450  155.7545 F       1  UNL1       -0.1663
@<TRIPOS>BOND
     1    11    12    1
     2    12    13   ar
     3    13    14   ar
     4    14    15   ar
     5    15     1    1
     6     1     2   ar
     7     2     3   ar
     8     3     4   ar
     9     4     5   ar
    10     5     6   ar
    11     6     7    1
    12     7     8    1
    13     8    18    1
    14    18    19   am
    15    19    20    2
    16    19    22    1
    17    22    23   ar
    18    23    24   ar
    19    24    25   ar
    20    25    28    1
    21    28    29    1
    22    29    30    1
    23    30    31    1
    24    30    32    1
    25    30    33    1
    26    25    26   ar
    27    26    27   ar
    28     8     9    1
    29     9    10    1
    30    15    16   ar
    31    16    17   ar
    32    17    12   ar
    33     6     1   ar
    34    27    22   ar
    35    10     5    1
    36    18    21    1
@<TRIPOS>MOLECULE
*****
 33 36 0 0 0
SMALL
GASTEIGER

@<TRIPOS>ATOM
      1 C         141.7950  141.2421  159.2553 C.ar    1  UNL1        0.0020
      2 C         141.8643  141.0411  157.7704 C.ar    1  UNL1       -0.0000
      3 C         142.4130  139.7618  157.2116 C.ar    1  UNL1        0.0031
      4 C         142.8925  138.6836  158.1376 C.ar    1  UNL1        0.0366
      5 C         142.8232  138.8846  159.6224 C.ar    1  UNL1        0.1346
      6 C         142.2745  140.1638  160.1812 C.ar    1  UNL1        0.0137
      7 C         142.2053  140.3649  161.6661 C.3     1  UNL1        0.0528
      8 C         142.6848  139.2866  162.5921 C.3     1  UNL1        0.1200
      9 C         143.2335  138.0073  162.0332 C.3     1  UNL1        0.2250
     10 O         143.3027  137.8063  160.5484 O.3     1  UNL1       -0.4740
     11 C         139.6001  146.3592  161.4909 C.3     1  UNL1        0.0737
     12 C         140.1488  145.0800  160.9320 C.ar    1  UNL1        0.1396
     13 N         141.6198  144.9457  160.6707 N.ar    1  UNL1       -0.2291
     14 C         142.1685  143.6664  160.1118 C.ar    1  UNL1        0.1017
     15 C         141.2463  142.5214  159.8142 C.ar    1  UNL1        0.0381
     16 C         139.7754  142.6557  160.0755 C.ar    1  UNL1        0.1017
     17 N         139.2266  143.9349  160.6344 N.ar    1  UNL1       -0.2291
     18 N         142.6156  139.4876  164.0770 N.am    1  UNL1       -0.2986
     19 C         141.2845  139.5254  164.7675 C.2     1  UNL1        0.2474
     20 O         140.0226  139.3622  163.9731 O.2     1  UNL1       -0.2701
     21 H         143.4438  139.5947  164.5983 H       1  UNL1        0.1498
     22 C         141.2153  139.7264  166.2524 C.ar    1  UNL1        0.0727
     23 C         139.8836  139.8564  166.9304 C.ar    1  UNL1        0.0109
     24 C         139.8144  140.0574  168.4152 C.ar    1  UNL1        0.0579
     25 C         141.0769  140.1285  169.2220 C.ar    1  UNL1        0.2251
     26 N         142.4086  139.9985  168.5440 N.ar    1  UNL1       -0.2100
     27 C         142.4778  139.7975  167.0592 C.ar    1  UNL1        0.1065
     28 O         141.0077  140.3295  170.7069 O.3     1  UNL1       -0.4509
     29 C         141.0252  141.7166  171.2776 C.3     1  UNL1        0.3095
     30 C         140.6865  142.8901  170.4069 C.3     1  UNL1        0.4381
     31 F         140.3477  144.0636  169.5363 F       1  UNL1       -0.1663
     32 F         139.2259  142.6452  170.6451 F       1  UNL1       -0.1663
     33 F         142.1470  143.1349  170.1687 F       1  UNL1       -0.1663
@<TRIPOS>BOND
     1    11    12    1
     2    12    13   ar
     3    13    14   ar
     4    14    15   ar
     5    15     1    1
     6     1     2   ar
     7     2     3   ar
     8     3     4   ar
     9     4     5   ar
    10     5     6   ar
    11     6     7    1
    12     7     8    1
    13     8    18    1
    14    18    19   am
    15    19    20    2
    16    19    22    1
    17    22    23   ar
    18    23    24   ar
    19    24    25   ar
    20    25    28    1
    21    28    29    1
    22    29    30    1
    23    30    31    1
    24    30    32    1
    25    30    33    1
    26    25    26   ar
    27    26    27   ar
    28     8     9    1
    29     9    10    1
    30    15    16   ar
    31    16    17   ar
    32    17    12   ar
    33     6     1   ar
    34    27    22   ar
    35    10     5    1
    36    18    21    1
@<TRIPOS>MOLECULE
*****
 33 36 0 0 0
SMALL
GASTEIGER

@<TRIPOS>ATOM
      1 C         139.9188  142.4373  164.4938 C.ar    1  UNL1        0.0020
      2 C         139.5075  143.6027  165.3438 C.ar    1  UNL1       -0.0000
      3 C         138.5704  144.6374  164.7951 C.ar    1  UNL1        0.0031
      4 C         138.0446  144.5067  163.3964 C.ar    1  UNL1        0.0366
      5 C         138.4559  143.3413  162.5464 C.ar    1  UNL1        0.1346
      6 C         139.3929  142.3066  163.0951 C.ar    1  UNL1        0.0137
      7 C         139.8043  141.1410  162.2450 C.3     1  UNL1        0.0528
      8 C         139.2784  141.0104  160.8463 C.3     1  UNL1        0.1200
      9 C         138.3413  142.0452  160.2976 C.3     1  UNL1        0.2250
     10 O         137.9300  143.2106  161.1476 O.3     1  UNL1       -0.4740
     11 C         143.6673  138.2981  166.6885 C.3     1  UNL1        0.0737
     12 C         142.7302  139.3329  166.1398 C.ar    1  UNL1        0.1396
     13 N         141.2476  139.1479  166.2729 N.ar    1  UNL1       -0.2291
     14 C         140.3104  140.1828  165.7242 C.ar    1  UNL1        0.1017
     15 C         140.8559  141.4024  165.0425 C.ar    1  UNL1        0.0381
     16 C         142.3385  141.5874  164.9094 C.ar    1  UNL1        0.1017
     17 N         143.2756  140.5526  165.4580 N.ar    1  UNL1       -0.2291
     18 N         139.6897  139.8449  159.9963 N.am    1  UNL1       -0.2986
     19 C         140.8692  139.9659  159.0775 C.2     1  UNL1        0.2474
     20 O         141.6375  141.2524  159.0088 O.2     1  UNL1       -0.2701
     21 H         139.1855  139.0005  160.0414 H       1  UNL1        0.1498
     22 C         141.2805  138.8004  158.2275 C.ar    1  UNL1        0.0727
     23 C         140.2881  138.1588  157.3036 C.ar    1  UNL1        0.0109
     24 C         140.6993  136.9934  156.4536 C.ar    1  UNL1        0.0579
     25 C         142.1028  136.4695  156.5275 C.ar    1  UNL1        0.2251
     26 N         143.0952  137.1111  157.4514 N.ar    1  UNL1       -0.2100
     27 C         142.6840  138.2765  158.3014 C.ar    1  UNL1        0.1065
     28 O         142.5141  135.3040  155.6774 O.3     1  UNL1       -0.4509
     29 C         142.5633  133.9258  156.2675 C.3     1  UNL1        0.3095
     30 C         143.8186  133.4366  156.9269 C.3     1  UNL1        0.4381
     31 F         145.0739  132.9475  157.5864 F       1  UNL1       -0.1663
     32 F         144.3085  132.9160  155.6083 F       1  UNL1       -0.1663
     33 F         143.3287  133.9573  158.2456 F       1  UNL1       -0.1663
@<TRIPOS>BOND
     1    11    12    1
     2    12    13   ar
     3    13    14   ar
     4    14    15   ar
     5    15     1    1
     6     1     2   ar
     7     2     3   ar
     8     3     4   ar
     9     4     5   ar
    10     5     6   ar
    11     6     7    1
    12     7     8    1
    13     8    18    1
    14    18    19   am
    15    19    20    2
    16    19    22    1
    17    22    23   ar
    18    23    24   ar
    19    24    25   ar
    20    25    28    1
    21    28    29    1
    22    29    30    1
    23    30    31    1
    24    30    32    1
    25    30    33    1
    26    25    26   ar
    27    26    27   ar
    28     8     9    1
    29     9    10    1
    30    15    16   ar
    31    16    17   ar
    32    17    12   ar
    33     6     1   ar
    34    27    22   ar
    35    10     5    1
    36    18    21    1
@<TRIPOS>MOLECULE
*****
 33 36 0 0 0
SMALL
GASTEIGER

@<TRIPOS>ATOM
      1 C         134.4461  141.1549  154.7144 C.ar    1  UNL1        0.0020
      2 C         134.1211  141.6749  153.3456 C.ar    1  UNL1       -0.0000
      3 C         135.1804  142.3566  152.5312 C.ar    1  UNL1        0.0031
      4 C         136.5647  142.5181  153.0857 C.ar    1  UNL1        0.0366
      5 C         136.8898  141.9981  154.4546 C.ar    1  UNL1        0.1346
      6 C         135.8305  141.3164  155.2690 C.ar    1  UNL1        0.0137
      7 C         136.1555  140.7963  156.6379 C.3     1  UNL1        0.0528
      8 C         137.5398  140.9579  157.1924 C.3     1  UNL1        0.1200
      9 C         138.5991  141.6396  156.3780 C.3     1  UNL1        0.2250
     10 O         138.2741  142.1597  155.0091 O.3     1  UNL1       -0.4740
     11 C         130.2090  138.4281  157.9721 C.3     1  UNL1        0.0737
     12 C         131.2682  139.1098  157.1577 C.ar    1  UNL1        0.1396
     13 N         131.0152  140.4750  156.5899 N.ar    1  UNL1       -0.2291
     14 C         132.0746  141.1567  155.7755 C.ar    1  UNL1        0.1017
     15 C         133.3868  140.4732  155.5289 C.ar    1  UNL1        0.0381
     16 C         133.6398  139.1080  156.0966 C.ar    1  UNL1        0.1017
     17 N         132.5805  138.4263  156.9110 N.ar    1  UNL1       -0.2291
     18 N         137.8649  140.4378  158.5613 N.am    1  UNL1       -0.2986
     19 C         138.1765  141.3955  159.6729 C.2     1  UNL1        0.2474
     20 O         138.1631  142.8732  159.4158 O.2     1  UNL1       -0.2701
     21 H         137.8737  139.4680  158.7301 H       1  UNL1        0.1498
     22 C         138.5016  140.8753  161.0419 C.ar    1  UNL1        0.0727
     23 C         137.6623  141.2809  162.2171 C.ar    1  UNL1        0.0109
     24 C         137.9873  140.7608  163.5859 C.ar    1  UNL1        0.0579
     25 C         139.1516  139.8351  163.7796 C.ar    1  UNL1        0.2251
     26 N         139.9908  139.4296  162.6044 N.ar    1  UNL1       -0.2100
     27 C         139.6658  139.9496  161.2355 C.ar    1  UNL1        0.1065
     28 O         139.4766  139.3150  165.1485 O.3     1  UNL1       -0.4509
     29 C         138.4027  139.2274  166.1921 C.3     1  UNL1        0.3095
     30 C         137.8766  137.8883  166.6164 C.3     1  UNL1        0.4381
     31 F         137.3506  136.5493  167.0407 F       1  UNL1       -0.1663
     32 F         138.7027  137.2270  165.5533 F       1  UNL1       -0.1663
     33 F         137.0506  138.5497  167.6794 F       1  UNL1       -0.1663
@<TRIPOS>BOND
     1    11    12    1
     2    12    13   ar
     3    13    14   ar
     4    14    15   ar
     5    15     1    1
     6     1     2   ar
     7     2     3   ar
     8     3     4   ar
     9     4     5   ar
    10     5     6   ar
    11     6     7    1
    12     7     8    1
    13     8    18    1
    14    18    19   am
    15    19    20    2
    16    19    22    1
    17    22    23   ar
    18    23    24   ar
    19    24    25   ar
    20    25    28    1
    21    28    29    1
    22    29    30    1
    23    30    31    1
    24    30    32    1
    25    30    33    1
    26    25    26   ar
    27    26    27   ar
    28     8     9    1
    29     9    10    1
    30    15    16   ar
    31    16    17   ar
    32    17    12   ar
    33     6     1   ar
    34    27    22   ar
    35    10     5    1
    36    18    21    1
@<TRIPOS>MOLECULE
*****
 33 36 0 0 0
SMALL
GASTEIGER

@<TRIPOS>ATOM
      1 C         140.6367  142.4794  165.7815 C.ar    1  UNL1        0.0020
      2 C         140.3760  142.8201  167.2188 C.ar    1  UNL1       -0.0000
      3 C         140.6505  141.8080  168.2912 C.ar    1  UNL1        0.0031
      4 C         141.1858  140.4551  167.9263 C.ar    1  UNL1        0.0366
      5 C         141.4464  140.1143  166.4890 C.ar    1  UNL1        0.1346
      6 C         141.1719  141.1265  165.4166 C.ar    1  UNL1        0.0137
      7 C         141.4326  140.7858  163.9792 C.3     1  UNL1        0.0528
      8 C         141.9678  139.4328  163.6143 C.3     1  UNL1        0.1200
      9 C         142.2423  138.4207  164.6868 C.3     1  UNL1        0.2250
     10 O         141.9817  138.7614  166.1241 O.3     1  UNL1       -0.4740
     11 C         139.5386  146.5281  161.4916 C.3     1  UNL1        0.0737
     12 C         139.8131  145.5159  162.5641 C.ar    1  UNL1        0.1396
     13 N         138.7077  144.6332  163.0629 N.ar    1  UNL1       -0.2291
     14 C         138.9822  143.6210  164.1354 C.ar    1  UNL1        0.1017
     15 C         140.3621  143.4916  164.7090 C.ar    1  UNL1        0.0381
     16 C         141.4675  144.3743  164.2102 C.ar    1  UNL1        0.1017
     17 N         141.1931  145.3865  163.1377 N.ar    1  UNL1       -0.2291
     18 N         142.2285  139.0921  162.1770 N.am    1  UNL1       -0.2986
     19 C         141.0896  138.7117  161.2779 C.2     1  UNL1        0.2474
     20 O         139.6901  138.6721  161.8161 O.2     1  UNL1       -0.2701
     21 H         143.1471  139.1181  161.8237 H       1  UNL1        0.1498
     22 C         141.3504  138.3710  159.8405 C.ar    1  UNL1        0.0727
     23 C         140.2164  138.3418  158.8591 C.ar    1  UNL1        0.0109
     24 C         140.4771  138.0010  157.4217 C.ar    1  UNL1        0.0579
     25 C         141.8718  137.6895  156.9659 C.ar    1  UNL1        0.2251
     26 N         143.0057  137.7187  157.9474 N.ar    1  UNL1       -0.2100
     27 C         142.7450  138.0595  159.3847 C.ar    1  UNL1        0.1065
     28 O         142.1325  137.3488  155.5285 O.3     1  UNL1       -0.4509
     29 C         142.8704  136.0908  155.1779 C.3     1  UNL1        0.3095
     30 C         142.6373  134.8388  155.9705 C.3     1  UNL1        0.4381
     31 F         142.4041  133.5869  156.7631 F       1  UNL1       -0.1663
     32 F         144.0430  134.9056  156.4895 F       1  UNL1       -0.1663
     33 F         141.2315  134.7721  155.4516 F       1  UNL1       -0.1663
@<TRIPOS>BOND
     1    11    12    1
     2    12    13   ar
     3    13    14   ar
     4    14    15   ar
     5    15     1    1
     6     1     2   ar
     7     2     3   ar
     8     3     4   ar
     9     4     5   ar
    10     5     6   ar
    11     6     7    1
    12     7     8    1
    13     8    18    1
    14    18    19   am
    15    19    20    2
    16    19    22    1
    17    22    23   ar
    18    23    24   ar
    19    24    25   ar
    20    25    28    1
    21    28    29    1
    22    29    30    1
    23    30    31    1
    24    30    32    1
    25    30    33    1
    26    25    26   ar
    27    26    27   ar
    28     8     9    1
    29     9    10    1
    30    15    16   ar
    31    16    17   ar
    32    17    12   ar
    33     6     1   ar
    34    27    22   ar
    35    10     5    1
    36    18    21    1
@<TRIPOS>MOLECULE
*****
 33 36 0 0 0
SMALL
GASTEIGER

@<TRIPOS>ATOM
      1 C         141.5877  134.5381  154.4659 C.ar    1  UNL1        0.0020
      2 C         141.1644  134.1311  153.0856 C.ar    1  UNL1       -0.0000
      3 C         140.3769  135.0805  152.2322 C.ar    1  UNL1        0.0031
      4 C         140.0127  136.4369  152.7590 C.ar    1  UNL1        0.0366
      5 C         140.4359  136.8439  154.1392 C.ar    1  UNL1        0.1346
      6 C         141.2235  135.8944  154.9927 C.ar    1  UNL1        0.0137
      7 C         141.6468  136.3014  156.3730 C.3     1  UNL1        0.0528
      8 C         141.2825  137.6578  156.8998 C.3     1  UNL1        0.1200
      9 C         140.4950  138.6072  156.0463 C.3     1  UNL1        0.2250
     10 O         140.0717  138.2002  154.6661 O.3     1  UNL1       -0.4740
     11 C         144.7379  130.7405  157.8799 C.3     1  UNL1        0.0737
     12 C         143.9504  131.6899  157.0264 C.ar    1  UNL1        0.1396
     13 N         142.5858  131.3036  156.5378 N.ar    1  UNL1       -0.2291
     14 C         141.7982  132.2530  155.6842 C.ar    1  UNL1        0.1017
     15 C         142.3753  133.5886  155.3194 C.ar    1  UNL1        0.0381
     16 C         143.7398  133.9749  155.8080 C.ar    1  UNL1        0.1017
     17 N         144.5274  133.0255  156.6615 N.ar    1  UNL1       -0.2291
     18 N         141.7058  138.0648  158.2801 N.am    1  UNL1       -0.2986
     19 C         143.0167  138.7639  158.4870 C.2     1  UNL1        0.2474
     20 O         143.9043  139.0560  157.3137 O.2     1  UNL1       -0.2701
     21 H         141.1232  137.8730  159.0502 H       1  UNL1        0.1498
     22 C         143.4400  139.1709  159.8674 C.ar    1  UNL1        0.0727
     23 C         143.7226  140.6124  160.1707 C.ar    1  UNL1        0.0109
     24 C         144.1458  141.0194  161.5510 C.ar    1  UNL1        0.0579
     25 C         144.2864  139.9849  162.6279 C.ar    1  UNL1        0.2251
     26 N         144.0037  138.5433  162.3246 N.ar    1  UNL1       -0.2100
     27 C         143.5805  138.1363  160.9443 C.ar    1  UNL1        0.1065
     28 O         144.7097  140.3919  164.0083 O.3     1  UNL1       -0.4509
     29 C         143.8430  141.3099  164.8183 C.3     1  UNL1        0.3095
     30 C         144.3372  142.6776  165.1858 C.3     1  UNL1        0.4381
     31 F         144.8314  144.0453  165.5533 F       1  UNL1       -0.1663
     32 F         143.0623  142.9377  165.9321 F       1  UNL1       -0.1663
     33 F         145.6121  142.4175  164.4395 F       1  UNL1       -0.1663
@<TRIPOS>BOND
     1    11    12    1
     2    12    13   ar
     3    13    14   ar
     4    14    15   ar
     5    15     1    1
     6     1     2   ar
     7     2     3   ar
     8     3     4   ar
     9     4     5   ar
    10     5     6   ar
    11     6     7    1
    12     7     8    1
    13     8    18    1
    14    18    19   am
    15    19    20    2
    16    19    22    1
    17    22    23   ar
    18    23    24   ar
    19    24    25   ar
    20    25    28    1
    21    28    29    1
    22    29    30    1
    23    30    31    1
    24    30    32    1
    25    30    33    1
    26    25    26   ar
    27    26    27   ar
    28     8     9    1
    29     9    10    1
    30    15    16   ar
    31    16    17   ar
    32    17    12   ar
    33     6     1   ar
    34    27    22   ar
    35    10     5    1
    36    18    21    1
@<TRIPOS>MOLECULE
*****
 33 36 0 0 0
SMALL
GASTEIGER

@<TRIPOS>ATOM
      1 C         140.7746  140.9014  167.1952 C.ar    1  UNL1        0.0020
      2 C         140.4946  140.8776  168.6686 C.ar    1  UNL1       -0.0000
      3 C         141.3338  140.0296  169.5778 C.ar    1  UNL1        0.0031
      4 C         142.4528  139.2054  169.0136 C.ar    1  UNL1        0.0366
      5 C         142.7328  139.2291  167.5402 C.ar    1  UNL1        0.1346
      6 C         141.8937  140.0771  166.6310 C.ar    1  UNL1        0.0137
      7 C         142.1736  140.1010  165.1574 C.3     1  UNL1        0.0528
      8 C         143.2927  139.2768  164.5932 C.3     1  UNL1        0.1200
      9 C         144.1319  138.4287  165.5025 C.3     1  UNL1        0.2250
     10 O         143.8519  138.4049  166.9760 O.3     1  UNL1       -0.4740
     11 C         137.4182  144.2935  163.5581 C.3     1  UNL1        0.0737
     12 C         138.2572  143.4454  164.4673 C.ar    1  UNL1        0.1396
     13 N         138.0111  141.9683  164.5541 N.ar    1  UNL1       -0.2291
     14 C         138.8503  141.1203  165.4634 C.ar    1  UNL1        0.1017
     15 C         139.9355  141.7494  166.2859 C.ar    1  UNL1        0.0381
     16 C         140.1816  143.2265  166.1991 C.ar    1  UNL1        0.1017
     17 N         139.3425  144.0745  165.2899 N.ar    1  UNL1       -0.2291
     18 N         143.5727  139.3005  163.1198 N.am    1  UNL1       -0.2986
     19 C         142.6084  138.6648  162.1628 C.2     1  UNL1        0.2474
     20 O         141.3641  138.0052  162.6792 O.2     1  UNL1       -0.2701
     21 H         144.3893  139.7334  162.7809 H       1  UNL1        0.1498
     22 C         142.8884  138.6886  160.6893 C.ar    1  UNL1        0.0727
     23 C         142.1614  137.7500  159.7725 C.ar    1  UNL1        0.0109
     24 C         142.4413  137.7738  158.2991 C.ar    1  UNL1        0.0579
     25 C         143.4483  138.7361  157.7425 C.ar    1  UNL1        0.2251
     26 N         144.1754  139.6747  158.6593 N.ar    1  UNL1       -0.2100
     27 C         143.8954  139.6509  160.1327 C.ar    1  UNL1        0.1065
     28 O         143.7284  138.7599  156.2690 O.3     1  UNL1       -0.4509
     29 C         144.3825  137.5814  155.6108 C.3     1  UNL1        0.3095
     30 C         143.5551  136.4041  155.1873 C.3     1  UNL1        0.4381
     31 F         142.7277  135.2268  154.7639 F       1  UNL1       -0.1663
     32 F         142.9729  137.2157  154.0683 F       1  UNL1       -0.1663
     33 F         144.1373  135.5925  156.3064 F       1  UNL1       -0.1663
@<TRIPOS>BOND
     1    11    12    1
     2    12    13   ar
     3    13    14   ar
     4    14    15   ar
     5    15     1    1
     6     1     2   ar
     7     2     3   ar
     8     3     4   ar
     9     4     5   ar
    10     5     6   ar
    11     6     7    1
    12     7     8    1
    13     8    18    1
    14    18    19   am
    15    19    20    2
    16    19    22    1
    17    22    23   ar
    18    23    24   ar
    19    24    25   ar
    20    25    28    1
    21    28    29    1
    22    29    30    1
    23    30    31    1
    24    30    32    1
    25    30    33    1
    26    25    26   ar
    27    26    27   ar
    28     8     9    1
    29     9    10    1
    30    15    16   ar
    31    16    17   ar
    32    17    12   ar
    33     6     1   ar
    34    27    22   ar
    35    10     5    1
    36    18    21    1
@<TRIPOS>MOLECULE
*****
 33 36 0 0 0
SMALL
GASTEIGER

@<TRIPOS>ATOM
      1 C         142.5412  134.9579  155.1415 C.ar    1  UNL1        0.0020
      2 C         142.2300  134.8734  153.6766 C.ar    1  UNL1       -0.0000
      3 C         141.8021  136.1012  152.9288 C.ar    1  UNL1        0.0031
      4 C         141.6854  137.4135  153.6458 C.ar    1  UNL1        0.0366
      5 C         141.9966  137.4981  155.1107 C.ar    1  UNL1        0.1346
      6 C         142.4245  136.2703  155.8585 C.ar    1  UNL1        0.0137
      7 C         142.7357  136.3548  157.3235 C.3     1  UNL1        0.0528
      8 C         142.6190  137.6672  158.0405 C.3     1  UNL1        0.1200
      9 C         142.1911  138.8950  157.2926 C.3     1  UNL1        0.2250
     10 O         141.8799  138.8104  155.8277 O.3     1  UNL1       -0.4740
     11 C         144.2529  130.0467  158.1332 C.3     1  UNL1        0.0737
     12 C         143.8250  131.2745  157.3853 C.ar    1  UNL1        0.1396
     13 N         144.6487  132.5256  157.4638 N.ar    1  UNL1       -0.2291
     14 C         144.2207  133.7535  156.7159 C.ar    1  UNL1        0.1017
     15 C         142.9691  133.7301  155.8895 C.ar    1  UNL1        0.0381
     16 C         142.1455  132.4789  155.8110 C.ar    1  UNL1        0.1017
     17 N         142.5734  131.2512  156.5589 N.ar    1  UNL1       -0.2291
     18 N         142.9302  137.7517  159.5054 N.am    1  UNL1       -0.2986
     19 C         141.8429  138.0790  160.4855 C.2     1  UNL1        0.2474
     20 O         140.4443  138.3217  160.0007 O.2     1  UNL1       -0.2701
     21 H         143.8482  137.5924  159.8236 H       1  UNL1        0.1498
     22 C         142.1542  138.1635  161.9505 C.ar    1  UNL1        0.0727
     23 C         141.2327  137.5308  162.9507 C.ar    1  UNL1        0.0109
     24 C         141.5439  137.6154  164.4156 C.ar    1  UNL1        0.0579
     25 C         142.7766  138.3326  164.8802 C.ar    1  UNL1        0.2251
     26 N         143.6982  138.9652  163.8800 N.ar    1  UNL1       -0.2100
     27 C         143.3869  138.8807  162.4151 C.ar    1  UNL1        0.1065
     28 O         143.0879  138.4171  166.3452 O.3     1  UNL1       -0.4509
     29 C         142.8101  139.6838  167.0991 C.3     1  UNL1        0.3095
     30 C         141.8155  139.6857  168.2218 C.3     1  UNL1        0.4381
     31 F         140.8208  139.6875  169.3445 F       1  UNL1       -0.1663
     32 F         140.7076  139.4409  167.2407 F       1  UNL1       -0.1663
     33 F         142.9234  139.9304  169.2029 F       1  UNL1       -0.1663
@<TRIPOS>BOND
     1    11    12    1
     2    12    13   ar
     3    13    14   ar
     4    14    15   ar
     5    15     1    1
     6     1     2   ar
     7     2     3   ar
     8     3     4   ar
     9     4     5   ar
    10     5     6   ar
    11     6     7    1
    12     7     8    1
    13     8    18    1
    14    18    19   am
    15    19    20    2
    16    19    22    1
    17    22    23   ar
    18    23    24   ar
    19    24    25   ar
    20    25    28    1
    21    28    29    1
    22    29    30    1
    23    30    31    1
    24    30    32    1
    25    30    33    1
    26    25    26   ar
    27    26    27   ar
    28     8     9    1
    29     9    10    1
    30    15    16   ar
    31    16    17   ar
    32    17    12   ar
    33     6     1   ar
    34    27    22   ar
    35    10     5    1
    36    18    21    1
@<TRIPOS>MOLECULE
*****
 33 36 0 0 0
SMALL
GASTEIGER

@<TRIPOS>ATOM
      1 C         139.2470  140.0410  159.3543 C.ar    1  UNL1        0.0020
      2 C         138.5941  141.3842  159.4934 C.ar    1  UNL1       -0.0000
      3 C         138.1462  142.1304  158.2718 C.ar    1  UNL1        0.0031
      4 C         138.3513  141.5335  156.9111 C.ar    1  UNL1        0.0366
      5 C         139.0042  140.1903  156.7720 C.ar    1  UNL1        0.1346
      6 C         139.4521  139.4440  157.9936 C.ar    1  UNL1        0.0137
      7 C         140.1051  138.1007  157.8545 C.3     1  UNL1        0.0528
      8 C         140.3101  137.5038  156.4938 C.3     1  UNL1        0.1200
      9 C         139.8622  138.2501  155.2721 C.3     1  UNL1        0.2250
     10 O         139.2093  139.5933  155.4112 O.3     1  UNL1       -0.4740
     11 C         141.0386  137.0556  164.2409 C.3     1  UNL1        0.0737
     12 C         140.5907  137.8020  163.0193 C.ar    1  UNL1        0.1396
     13 N         141.5542  138.6876  162.2863 N.ar    1  UNL1       -0.2291
     14 C         141.1063  139.4340  161.0646 C.ar    1  UNL1        0.1017
     15 C         139.6949  139.2946  160.5760 C.ar    1  UNL1        0.0381
     16 C         138.7315  138.4089  161.3091 C.ar    1  UNL1        0.1017
     17 N         139.1793  137.6626  162.5307 N.ar    1  UNL1       -0.2291
     18 N         140.9630  136.1606  156.3547 N.am    1  UNL1       -0.2986
     19 C         142.4352  136.0130  156.6018 C.2     1  UNL1        0.2474
     20 O         143.2544  137.2087  156.9880 O.2     1  UNL1       -0.2701
     21 H         140.4254  135.3758  156.1012 H       1  UNL1        0.1498
     22 C         143.0881  134.6697  156.4627 C.ar    1  UNL1        0.0727
     23 C         142.9121  133.8773  155.2013 C.ar    1  UNL1        0.0109
     24 C         143.5649  132.5340  155.0622 C.ar    1  UNL1        0.0579
     25 C         144.3938  131.9832  156.1844 C.ar    1  UNL1        0.2251
     26 N         144.5699  132.7756  157.4458 N.ar    1  UNL1       -0.2100
     27 C         143.9170  134.1189  157.5849 C.ar    1  UNL1        0.1065
     28 O         145.0468  130.6399  156.0453 O.3     1  UNL1       -0.4509
     29 C         144.3099  129.4012  156.4608 C.3     1  UNL1        0.3095
     30 C         143.8151  129.2600  157.8698 C.3     1  UNL1        0.4381
     31 F         143.3204  129.1189  159.2788 F       1  UNL1       -0.1663
     32 F         142.4825  128.8018  157.3559 F       1  UNL1       -0.1663
     33 F         145.1478  129.7183  158.3837 F       1  UNL1       -0.1663
@<TRIPOS>BOND
     1    11    12    1
     2    12    13   ar
     3    13    14   ar
     4    14    15   ar
     5    15     1    1
     6     1     2   ar
     7     2     3   ar
     8     3     4   ar
     9     4     5   ar
    10     5     6   ar
    11     6     7    1
    12     7     8    1
    13     8    18    1
    14    18    19   am
    15    19    20    2
    16    19    22    1
    17    22    23   ar
    18    23    24   ar
    19    24    25   ar
    20    25    28    1
    21    28    29    1
    22    29    30    1
    23    30    31    1
    24    30    32    1
    25    30    33    1
    26    25    26   ar
    27    26    27   ar
    28     8     9    1
    29     9    10    1
    30    15    16   ar
    31    16    17   ar
    32    17    12   ar
    33     6     1   ar
    34    27    22   ar
    35    10     5    1
    36    18    21    1
