@<TRIPOS>MOLECULE
*****
 43 45 0 0 0
SMALL
GASTEIGER

@<TRIPOS>ATOM
      1 C         142.2994  138.1067  157.5474 C.3     1  UNL1        0.1895
      2 C         145.5526  140.8399  156.0654 C.ar    1  UNL1        0.1247
      3 C         144.7770  141.1970  157.2987 C.ar    1  UNL1        0.0212
      4 C         143.6926  140.2859  157.7927 C.ar    1  UNL1        0.0182
      5 C         143.3838  139.0178  157.0534 C.ar    1  UNL1        0.0859
      6 N         144.1594  138.6608  155.8202 N.ar    1  UNL1       -0.2447
      7 C         145.2438  139.5718  155.3262 C.ar    1  UNL1        0.1168
      8 S         146.6370  141.7510  155.5714 S.O2    1  UNL1        0.0101
      9 O         146.6590  142.4456  156.9007 O.2     1  UNL1       -0.1686
     10 O         146.6150  141.0564  154.2421 O.2     1  UNL1       -0.1686
     11 C         147.3668  143.9175  154.3370 C.3     1  UNL1        0.0276
     12 C         147.7214  142.6621  155.0774 C.3     1  UNL1        0.1560
     13 N         141.6491  137.1360  156.6069 N.am    1  UNL1       -0.2934
     14 C         142.2077  135.7525  156.4525 C.2     1  UNL1        0.2296
     15 O         143.4167  135.3397  157.2386 O.2     1  UNL1       -0.2746
     16 H         140.8556  137.4068  156.0909 H       1  UNL1        0.1502
     17 C         141.5574  134.7817  155.5119 C.3     1  UNL1        0.1374
     18 C         142.0955  133.3875  155.3827 C.ar    1  UNL1        0.0975
     19 N         142.2080  132.3799  156.4882 N.ar    1  UNL1       -0.2407
     20 C         142.7976  131.1258  155.9141 C.ar    1  UNL1        0.1061
     21 C         143.0495  131.3583  154.4538 C.ar    1  UNL1        0.0572
     22 S         142.6155  132.7561  154.1254 S.2     1  UNL1       -0.0697
     23 C         141.8653  138.1664  158.9820 C.2     1  UNL1        0.2499
     24 O         142.7232  137.5573  160.0512 O.2     1  UNL1       -0.2726
     25 N         140.5734  138.8353  159.3474 N.am    1  UNL1       -0.2823
     26 H         140.0103  139.2351  158.6457 H       1  UNL1        0.1549
     27 C         140.1393  138.8950  160.7821 C.ar    1  UNL1        0.0503
     28 C         139.0244  138.0157  161.2655 C.ar    1  UNL1        0.0144
     29 C         138.5903  138.0754  162.7001 C.ar    1  UNL1       -0.0002
     30 C         139.2712  139.0144  163.6512 C.ar    1  UNL1        0.0182
     31 C         140.3862  139.8937  163.1677 C.ar    1  UNL1       -0.0002
     32 C         140.8202  139.8340  161.7332 C.ar    1  UNL1        0.0144
     33 C         138.8372  139.0741  165.0858 C.3     1  UNL1        0.2827
     34 O         139.3961  137.7007  165.3121 O.3     1  UNL1       -0.3692
     35 H         139.2519  137.4410  166.2355 H       1  UNL1        0.2112
     36 C         138.4032  139.1338  166.5204 C.3     1  UNL1        0.4311
     37 F         137.9691  139.1936  167.9550 F       1  UNL1       -0.1669
     38 F         139.8355  139.2565  166.9486 F       1  UNL1       -0.1669
     39 F         137.5324  139.0663  166.3726 F       1  UNL1       -0.1669
     40 C         138.2783  140.4476  164.8595 C.3     1  UNL1        0.4311
     41 F         137.7194  141.8211  164.6333 F       1  UNL1       -0.1669
     42 F         137.6175  140.2079  164.3207 F       1  UNL1       -0.1669
     43 F         139.1705  141.3405  165.6700 F       1  UNL1       -0.1669
@<TRIPOS>BOND
     1    11    12    1
     2    12     8    1
     3     8     9    2
     4     8    10    2
     5     8     2    1
     6     2     3   ar
     7     3     4   ar
     8     4     5   ar
     9     5     1    1
    10     1    13    1
    11    13    14   am
    12    14    15    2
    13    14    17    1
    14    17    18    1
    15    18    19   ar
    16    19    20   ar
    17    20    21   ar
    18    21    22   ar
    19     1    23    1
    20    23    24    2
    21    23    25   am
    22    25    27    1
    23    27    28   ar
    24    28    29   ar
    25    29    30   ar
    26    30    33    1
    27    33    34    1
    28    33    36    1
    29    36    37    1
    30    36    38    1
    31    36    39    1
    32    33    40    1
    33    40    41    1
    34    40    42    1
    35    40    43    1
    36    30    31   ar
    37    31    32   ar
    38     5     6   ar
    39     6     7   ar
    40     7     2   ar
    41    22    18   ar
    42    32    27   ar
    43    13    16    1
    44    25    26    1
    45    34    35    1
@<TRIPOS>MOLECULE
*****
 43 45 0 0 0
SMALL
GASTEIGER

@<TRIPOS>ATOM
      1 C         141.6738  137.2310  156.4554 C.3     1  UNL1        0.1895
      2 C         143.2018  133.0068  156.1889 C.ar    1  UNL1        0.1247
      3 C         142.2024  133.5073  155.1887 C.ar    1  UNL1        0.0212
      4 C         141.6930  134.9154  155.2775 C.ar    1  UNL1        0.0182
      5 C         142.1831  135.8230  156.3666 C.ar    1  UNL1        0.0859
      6 N         143.1826  135.3224  157.3668 N.ar    1  UNL1       -0.2447
      7 C         143.6919  133.9143  157.2780 C.ar    1  UNL1        0.1168
      8 S         143.7112  131.5987  156.1001 S.O2    1  UNL1        0.0101
      9 O         145.1191  132.1121  156.0357 O.2     1  UNL1       -0.1686
     10 O         142.3032  131.0854  156.1644 O.2     1  UNL1       -0.1686
     11 C         144.7199  129.6549  154.7022 C.3     1  UNL1        0.0276
     12 C         144.2205  130.1907  156.0112 C.3     1  UNL1        0.1560
     13 N         140.8807  137.8145  155.3238 N.am    1  UNL1       -0.2934
     14 C         139.3974  137.6006  155.2589 C.2     1  UNL1        0.2296
     15 O         138.7073  136.8032  156.3255 O.2     1  UNL1       -0.2746
     16 H         141.3337  138.3379  154.6237 H       1  UNL1        0.1502
     17 C         138.6044  138.1841  154.1272 C.3     1  UNL1        0.1374
     18 C         137.3460  138.9500  154.4099 C.ar    1  UNL1        0.0975
     19 N         135.9917  138.3577  154.6646 N.ar    1  UNL1       -0.2407
     20 C         135.0297  139.4843  154.8997 C.ar    1  UNL1        0.1061
     21 C         135.7895  140.7730  154.7902 C.ar    1  UNL1        0.0572
     22 S         137.2210  140.4428  154.4875 S.2     1  UNL1       -0.0697
     23 C         141.9575  138.0556  157.6758 C.2     1  UNL1        0.2499
     24 O         140.8401  138.4321  158.6031 O.2     1  UNL1       -0.2726
     25 N         143.3586  138.5039  157.9690 N.am    1  UNL1       -0.2823
     26 H         144.0920  138.2568  157.3605 H       1  UNL1        0.1549
     27 C         143.6423  139.3285  159.1895 C.ar    1  UNL1        0.0503
     28 C         143.7309  140.8220  159.0816 C.ar    1  UNL1        0.0144
     29 C         144.0146  141.6466  160.3021 C.ar    1  UNL1       -0.0002
     30 C         144.2097  140.9777  161.6305 C.ar    1  UNL1        0.0182
     31 C         144.1211  139.4842  161.7384 C.ar    1  UNL1       -0.0002
     32 C         143.8374  138.6596  160.5179 C.ar    1  UNL1        0.0144
     33 C         144.4934  141.8023  162.8510 C.3     1  UNL1        0.2827
     34 O         145.8526  142.1345  162.3106 O.3     1  UNL1       -0.3692
     35 H         146.3185  142.7089  162.9382 H       1  UNL1        0.2112
     36 C         144.7771  142.6269  164.0714 C.3     1  UNL1        0.4311
     37 F         145.0607  143.4515  165.2919 F       1  UNL1       -0.1669
     38 F         145.9851  141.7856  164.3590 F       1  UNL1       -0.1669
     39 F         144.0894  143.1793  163.9907 F       1  UNL1       -0.1669
     40 C         143.1342  141.4700  163.3914 C.3     1  UNL1        0.4311
     41 F         141.7749  141.1377  163.9318 F       1  UNL1       -0.1669
     42 F         142.6665  141.9382  162.8027 F       1  UNL1       -0.1669
     43 F         143.4176  140.5749  164.5612 F       1  UNL1       -0.1669
@<TRIPOS>BOND
     1    11    12    1
     2    12     8    1
     3     8     9    2
     4     8    10    2
     5     8     2    1
     6     2     3   ar
     7     3     4   ar
     8     4     5   ar
     9     5     1    1
    10     1    13    1
    11    13    14   am
    12    14    15    2
    13    14    17    1
    14    17    18    1
    15    18    19   ar
    16    19    20   ar
    17    20    21   ar
    18    21    22   ar
    19     1    23    1
    20    23    24    2
    21    23    25   am
    22    25    27    1
    23    27    28   ar
    24    28    29   ar
    25    29    30   ar
    26    30    33    1
    27    33    34    1
    28    33    36    1
    29    36    37    1
    30    36    38    1
    31    36    39    1
    32    33    40    1
    33    40    41    1
    34    40    42    1
    35    40    43    1
    36    30    31   ar
    37    31    32   ar
    38     5     6   ar
    39     6     7   ar
    40     7     2   ar
    41    22    18   ar
    42    32    27   ar
    43    13    16    1
    44    25    26    1
    45    34    35    1
@<TRIPOS>MOLECULE
*****
 43 45 0 0 0
SMALL
GASTEIGER

@<TRIPOS>ATOM
      1 C         139.0085  139.5148  159.0957 C.3     1  UNL1        0.1895
      2 C         141.7444  136.7755  156.8020 C.ar    1  UNL1        0.1247
      3 C         142.2520  137.5005  158.0131 C.ar    1  UNL1        0.0212
      4 C         141.3400  138.4136  158.7776 C.ar    1  UNL1        0.0182
      5 C         139.9204  138.6017  158.3311 C.ar    1  UNL1        0.0859
      6 N         139.4129  137.8768  157.1200 N.ar    1  UNL1       -0.2447
      7 C         140.3249  136.9637  156.3555 C.ar    1  UNL1        0.1168
      8 S         142.6564  135.8624  156.0375 S.O2    1  UNL1        0.0101
      9 O         142.0270  136.3104  154.7517 O.2     1  UNL1       -0.1686
     10 O         143.2858  135.4144  157.3232 O.2     1  UNL1       -0.1686
     11 C         143.5055  133.4674  155.4964 C.3     1  UNL1        0.0276
     12 C         143.5684  134.9493  155.2729 C.3     1  UNL1        0.1560
     13 N         137.8876  140.2185  158.3897 N.am    1  UNL1       -0.2934
     14 C         138.1737  141.4224  157.5418 C.2     1  UNL1        0.2296
     15 O         139.5807  141.9226  157.4000 O.2     1  UNL1       -0.2746
     16 H         136.9641  139.8903  158.4828 H       1  UNL1        0.1502
     17 C         137.0528  142.1261  156.8359 C.3     1  UNL1        0.1374
     18 C         136.2087  141.3838  155.8426 C.ar    1  UNL1        0.0975
     19 N         135.9464  139.9069  155.8377 N.ar    1  UNL1       -0.2407
     20 C         135.0544  139.5983  154.6720 C.ar    1  UNL1        0.1061
     21 C         134.7653  140.8845  153.9563 C.ar    1  UNL1        0.0572
     22 S         135.4787  141.9880  154.6799 S.2     1  UNL1       -0.0697
     23 C         139.2174  139.7242  160.5662 C.2     1  UNL1        0.2499
     24 O         140.2364  140.7153  161.0454 O.2     1  UNL1       -0.2726
     25 N         138.4073  138.9427  161.5576 N.am    1  UNL1       -0.2823
     26 H         137.7385  138.2923  161.2431 H       1  UNL1        0.1549
     27 C         138.6162  139.1521  163.0282 C.ar    1  UNL1        0.0503
     28 C         138.1555  140.4233  163.6776 C.ar    1  UNL1        0.0144
     29 C         138.3644  140.6328  165.1482 C.ar    1  UNL1       -0.0002
     30 C         139.0341  139.5710  165.9693 C.ar    1  UNL1        0.0182
     31 C         139.4948  138.2998  165.3198 C.ar    1  UNL1       -0.0002
     32 C         139.2858  138.0904  163.8493 C.ar    1  UNL1        0.0144
     33 C         139.2430  139.7804  167.4398 C.3     1  UNL1        0.2827
     34 O         138.1136  138.8384  167.7344 O.3     1  UNL1       -0.3692
     35 H         137.9975  138.7630  168.6945 H       1  UNL1        0.2112
     36 C         139.4520  139.9898  168.9103 C.3     1  UNL1        0.4311
     37 F         139.6609  140.1992  170.3809 F       1  UNL1       -0.1669
     38 F         140.8678  139.5129  168.7770 F       1  UNL1       -0.1669
     39 F         138.6371  140.2844  169.0943 F       1  UNL1       -0.1669
     40 C         140.3725  140.7225  167.1452 C.3     1  UNL1        0.4311
     41 F         141.5019  141.6646  166.8505 F       1  UNL1       -0.1669
     42 F         140.9100  140.1307  166.7639 F       1  UNL1       -0.1669
     43 F         139.8904  142.0425  167.6700 F       1  UNL1       -0.1669
@<TRIPOS>BOND
     1    11    12    1
     2    12     8    1
     3     8     9    2
     4     8    10    2
     5     8     2    1
     6     2     3   ar
     7     3     4   ar
     8     4     5   ar
     9     5     1    1
    10     1    13    1
    11    13    14   am
    12    14    15    2
    13    14    17    1
    14    17    18    1
    15    18    19   ar
    16    19    20   ar
    17    20    21   ar
    18    21    22   ar
    19     1    23    1
    20    23    24    2
    21    23    25   am
    22    25    27    1
    23    27    28   ar
    24    28    29   ar
    25    29    30   ar
    26    30    33    1
    27    33    34    1
    28    33    36    1
    29    36    37    1
    30    36    38    1
    31    36    39    1
    32    33    40    1
    33    40    41    1
    34    40    42    1
    35    40    43    1
    36    30    31   ar
    37    31    32   ar
    38     5     6   ar
    39     6     7   ar
    40     7     2   ar
    41    22    18   ar
    42    32    27   ar
    43    13    16    1
    44    25    26    1
    45    34    35    1
@<TRIPOS>MOLECULE
*****
 43 45 0 0 0
SMALL
GASTEIGER

@<TRIPOS>ATOM
      1 C         141.6280  137.1319  156.5225 C.3     1  UNL1        0.1895
      2 C         143.3685  133.0227  155.9438 C.ar    1  UNL1        0.1247
      3 C         142.2525  133.4957  155.0602 C.ar    1  UNL1        0.0212
      4 C         141.6723  134.8655  155.2531 C.ar    1  UNL1        0.0182
      5 C         142.2081  135.7622  156.3296 C.ar    1  UNL1        0.0859
      6 N         143.3241  135.2891  157.2132 N.ar    1  UNL1       -0.2447
      7 C         143.9043  133.9193  157.0203 C.ar    1  UNL1        0.1168
      8 S         143.9487  131.6529  155.7509 S.O2    1  UNL1        0.0101
      9 O         142.6107  131.1503  155.2956 O.2     1  UNL1       -0.1686
     10 O         145.2866  132.1555  156.2061 O.2     1  UNL1       -0.1686
     11 C         144.6968  129.7278  154.1748 C.3     1  UNL1        0.0276
     12 C         144.5289  130.2832  155.5580 C.3     1  UNL1        0.1560
     13 N         140.9555  137.8296  155.3775 N.am    1  UNL1       -0.2934
     14 C         139.4782  137.6749  155.1683 C.2     1  UNL1        0.2296
     15 O         138.6734  136.8225  156.1040 O.2     1  UNL1       -0.2746
     16 H         141.4837  138.3891  154.7634 H       1  UNL1        0.1502
     17 C         138.8058  138.3727  154.0233 C.3     1  UNL1        0.1374
     18 C         137.5249  139.1201  154.2485 C.ar    1  UNL1        0.0975
     19 N         137.1366  139.8465  155.5022 N.ar    1  UNL1       -0.2407
     20 C         135.7791  140.4477  155.2881 C.ar    1  UNL1        0.1061
     21 C         135.3284  140.0929  153.9021 C.ar    1  UNL1        0.0572
     22 S         136.4074  139.2725  153.2596 S.2     1  UNL1       -0.0697
     23 C         141.7202  137.8039  157.8603 C.2     1  UNL1        0.2499
     24 O         140.4821  138.3352  158.5197 O.2     1  UNL1       -0.2726
     25 N         143.0506  137.9447  158.5387 N.am    1  UNL1       -0.2823
     26 H         143.8632  137.5960  158.1060 H       1  UNL1        0.1549
     27 C         143.1428  138.6167  159.8767 C.ar    1  UNL1        0.0503
     28 C         142.8020  137.8555  161.1234 C.ar    1  UNL1        0.0144
     29 C         142.8942  138.5276  162.4613 C.ar    1  UNL1       -0.0002
     30 C         143.3273  139.9608  162.5524 C.ar    1  UNL1        0.0182
     31 C         143.6682  140.7220  161.3055 C.ar    1  UNL1       -0.0002
     32 C         143.5759  140.0499  159.9677 C.ar    1  UNL1        0.0144
     33 C         143.4196  140.6329  163.8902 C.3     1  UNL1        0.2827
     34 O         142.2436  141.4949  163.5382 O.3     1  UNL1       -0.3692
     35 H         142.0463  142.0905  164.2780 H       1  UNL1        0.2112
     36 C         143.5118  141.3049  165.2280 C.3     1  UNL1        0.4311
     37 F         143.6041  141.9771  166.5659 F       1  UNL1       -0.1669
     38 F         142.1902  140.7117  165.6171 F       1  UNL1       -0.1669
     39 F         144.2931  141.7010  165.0962 F       1  UNL1       -0.1669
     40 C         144.5955  139.7709  164.2421 C.3     1  UNL1        0.4311
     41 F         145.7716  138.9088  164.5941 F       1  UNL1       -0.1669
     42 F         145.1722  140.1403  163.6806 F       1  UNL1       -0.1669
     43 F         144.0655  138.8477  165.2990 F       1  UNL1       -0.1669
@<TRIPOS>BOND
     1    11    12    1
     2    12     8    1
     3     8     9    2
     4     8    10    2
     5     8     2    1
     6     2     3   ar
     7     3     4   ar
     8     4     5   ar
     9     5     1    1
    10     1    13    1
    11    13    14   am
    12    14    15    2
    13    14    17    1
    14    17    18    1
    15    18    19   ar
    16    19    20   ar
    17    20    21   ar
    18    21    22   ar
    19     1    23    1
    20    23    24    2
    21    23    25   am
    22    25    27    1
    23    27    28   ar
    24    28    29   ar
    25    29    30   ar
    26    30    33    1
    27    33    34    1
    28    33    36    1
    29    36    37    1
    30    36    38    1
    31    36    39    1
    32    33    40    1
    33    40    41    1
    34    40    42    1
    35    40    43    1
    36    30    31   ar
    37    31    32   ar
    38     5     6   ar
    39     6     7   ar
    40     7     2   ar
    41    22    18   ar
    42    32    27   ar
    43    13    16    1
    44    25    26    1
    45    34    35    1
@<TRIPOS>MOLECULE
*****
 43 45 0 0 0
SMALL
GASTEIGER

@<TRIPOS>ATOM
      1 C         141.7836  138.8525  157.8170 C.3     1  UNL1        0.1895
      2 C         142.2847  134.7648  156.0033 C.ar    1  UNL1        0.1247
      3 C         141.1664  135.6551  155.5486 C.ar    1  UNL1        0.0212
      4 C         140.9994  137.0176  156.1532 C.ar    1  UNL1        0.0182
      5 C         141.9506  137.4899  157.2124 C.ar    1  UNL1        0.0859
      6 N         143.0689  136.5997  157.6671 N.ar    1  UNL1       -0.2447
      7 C         143.2360  135.2371  157.0626 C.ar    1  UNL1        0.1168
      8 S         142.4518  133.4022  155.3988 S.O2    1  UNL1        0.0101
      9 O         142.5540  134.0196  154.0356 O.2     1  UNL1       -0.1686
     10 O         142.3496  132.7848  156.7620 O.2     1  UNL1       -0.1686
     11 C         143.9157  131.3027  154.9526 C.3     1  UNL1        0.0276
     12 C         142.6189  132.0396  154.7943 C.3     1  UNL1        0.1560
     13 N         142.0281  140.0769  156.9857 N.am    1  UNL1       -0.2934
     14 C         143.3986  140.6841  156.9298 C.2     1  UNL1        0.2296
     15 O         144.5246  140.0668  157.7051 O.2     1  UNL1       -0.2746
     16 H         141.2891  140.4821  156.4769 H       1  UNL1        0.1502
     17 C         143.6431  141.9085  156.0985 C.3     1  UNL1        0.1374
     18 C         143.0285  143.2185  156.4939 C.ar    1  UNL1        0.0975
     19 N         142.5701  144.2960  155.5565 N.ar    1  UNL1       -0.2407
     20 C         142.0227  145.4244  156.3795 C.ar    1  UNL1        0.1061
     21 C         142.1429  145.0442  157.8255 C.ar    1  UNL1        0.0572
     22 S         142.7645  143.6809  157.8962 S.2     1  UNL1       -0.0697
     23 C         141.3720  138.9907  159.2527 C.2     1  UNL1        0.2499
     24 O         142.1105  139.9322  160.1574 O.2     1  UNL1       -0.2726
     25 N         140.2219  138.1874  159.7839 N.am    1  UNL1       -0.2823
     26 H         139.7372  137.5695  159.1902 H       1  UNL1        0.1549
     27 C         139.8103  138.3257  161.2197 C.ar    1  UNL1        0.0503
     28 C         138.5630  139.0801  161.5731 C.ar    1  UNL1        0.0144
     29 C         138.1514  139.2183  163.0090 C.ar    1  UNL1       -0.0002
     30 C         138.9872  138.6021  164.0914 C.ar    1  UNL1        0.0182
     31 C         140.2346  137.8475  163.7379 C.ar    1  UNL1       -0.0002
     32 C         140.6461  137.7094  162.3021 C.ar    1  UNL1        0.0144
     33 C         138.5757  138.7402  165.5271 C.3     1  UNL1        0.2827
     34 O         138.6089  137.2485  165.6802 O.3     1  UNL1       -0.3692
     35 H         138.3652  137.0112  166.5886 H       1  UNL1        0.2112
     36 C         138.1642  138.8784  166.9629 C.3     1  UNL1        0.4311
     37 F         137.7527  139.0166  168.3988 F       1  UNL1       -0.1669
     38 F         137.0821  137.8616  166.7506 F       1  UNL1       -0.1669
     39 F         138.7689  139.4843  167.1907 F       1  UNL1       -0.1669
     40 C         138.5425  140.2320  165.3741 C.3     1  UNL1        0.4311
     41 F         138.5093  141.7238  165.2210 F       1  UNL1       -0.1669
     42 F         137.6622  140.3243  165.4059 F       1  UNL1       -0.1669
     43 F         139.9880  140.6181  165.2659 F       1  UNL1       -0.1669
@<TRIPOS>BOND
     1    11    12    1
     2    12     8    1
     3     8     9    2
     4     8    10    2
     5     8     2    1
     6     2     3   ar
     7     3     4   ar
     8     4     5   ar
     9     5     1    1
    10     1    13    1
    11    13    14   am
    12    14    15    2
    13    14    17    1
    14    17    18    1
    15    18    19   ar
    16    19    20   ar
    17    20    21   ar
    18    21    22   ar
    19     1    23    1
    20    23    24    2
    21    23    25   am
    22    25    27    1
    23    27    28   ar
    24    28    29   ar
    25    29    30   ar
    26    30    33    1
    27    33    34    1
    28    33    36    1
    29    36    37    1
    30    36    38    1
    31    36    39    1
    32    33    40    1
    33    40    41    1
    34    40    42    1
    35    40    43    1
    36    30    31   ar
    37    31    32   ar
    38     5     6   ar
    39     6     7   ar
    40     7     2   ar
    41    22    18   ar
    42    32    27   ar
    43    13    16    1
    44    25    26    1
    45    34    35    1
@<TRIPOS>MOLECULE
*****
 43 45 0 0 0
SMALL
GASTEIGER

@<TRIPOS>ATOM
      1 C         142.1932  138.2179  157.6030 C.3     1  UNL1        0.1895
      2 C         142.3214  134.2921  155.4072 C.ar    1  UNL1        0.1247
      3 C         141.1489  135.2111  155.2327 C.ar    1  UNL1        0.0212
      4 C         141.1062  136.5197  155.9646 C.ar    1  UNL1        0.0182
      5 C         142.2359  136.9093  156.8711 C.ar    1  UNL1        0.0859
      6 N         143.4084  135.9902  157.0457 N.ar    1  UNL1       -0.2447
      7 C         143.4512  134.6816  156.3137 C.ar    1  UNL1        0.1168
      8 S         142.3641  132.9835  154.6753 S.O2    1  UNL1        0.0101
      9 O         142.2569  133.7112  153.3680 O.2     1  UNL1       -0.1686
     10 O         142.4713  132.2558  155.9825 O.2     1  UNL1       -0.1686
     11 C         143.6627  130.8547  153.9460 C.3     1  UNL1        0.0276
     12 C         142.4069  131.6749  153.9433 C.3     1  UNL1        0.1560
     13 N         142.5789  139.4845  156.8981 N.am    1  UNL1       -0.2934
     14 C         143.7465  140.2892  157.3871 C.2     1  UNL1        0.2296
     15 O         144.5284  139.8274  158.5809 O.2     1  UNL1       -0.2746
     16 H         142.0658  139.7876  156.1145 H       1  UNL1        0.1502
     17 C         144.1322  141.5559  156.6821 C.3     1  UNL1        0.1374
     18 C         145.5544  141.7754  156.2588 C.ar    1  UNL1        0.0975
     19 N         146.6118  142.4825  157.0537 N.ar    1  UNL1       -0.2407
     20 C         147.8798  142.4704  156.2525 C.ar    1  UNL1        0.1061
     21 C         147.6061  141.7559  154.9623 C.ar    1  UNL1        0.0572
     22 S         146.1689  141.3264  154.9662 S.2     1  UNL1       -0.0697
     23 C         141.7648  138.2599  159.0399 C.2     1  UNL1        0.2499
     24 O         142.6209  137.6272  160.0967 O.2     1  UNL1       -0.2726
     25 N         140.4802  138.9347  159.4201 N.am    1  UNL1       -0.2823
     26 H         139.9182  139.3500  158.7265 H       1  UNL1        0.1549
     27 C         140.0517  138.9767  160.8570 C.ar    1  UNL1        0.0503
     28 C         140.6510  139.9876  161.7891 C.ar    1  UNL1        0.0144
     29 C         140.2226  140.0296  163.2261 C.ar    1  UNL1       -0.0002
     30 C         139.1949  139.0606  163.7309 C.ar    1  UNL1        0.0182
     31 C         138.5956  138.0496  162.7987 C.ar    1  UNL1       -0.0002
     32 C         139.0240  138.0077  161.3618 C.ar    1  UNL1        0.0144
     33 C         138.7664  139.1026  165.1677 C.3     1  UNL1        0.2827
     34 O         139.2978  137.7141  165.3667 O.3     1  UNL1       -0.3692
     35 H         139.1511  137.4404  166.2857 H       1  UNL1        0.2112
     36 C         138.3380  139.1445  166.6046 C.3     1  UNL1        0.4311
     37 F         137.9095  139.1865  168.0415 F       1  UNL1       -0.1669
     38 F         139.7720  139.2613  167.0288 F       1  UNL1       -0.1669
     39 F         137.4667  139.0791  166.4594 F       1  UNL1       -0.1669
     40 C         138.2351  140.4911  164.9687 C.3     1  UNL1        0.4311
     41 F         137.7037  141.8797  164.7698 F       1  UNL1       -0.1669
     42 F         137.5891  140.2792  164.4011 F       1  UNL1       -0.1669
     43 F         139.1127  141.3434  165.8368 F       1  UNL1       -0.1669
@<TRIPOS>BOND
     1    11    12    1
     2    12     8    1
     3     8     9    2
     4     8    10    2
     5     8     2    1
     6     2     3   ar
     7     3     4   ar
     8     4     5   ar
     9     5     1    1
    10     1    13    1
    11    13    14   am
    12    14    15    2
    13    14    17    1
    14    17    18    1
    15    18    19   ar
    16    19    20   ar
    17    20    21   ar
    18    21    22   ar
    19     1    23    1
    20    23    24    2
    21    23    25   am
    22    25    27    1
    23    27    28   ar
    24    28    29   ar
    25    29    30   ar
    26    30    33    1
    27    33    34    1
    28    33    36    1
    29    36    37    1
    30    36    38    1
    31    36    39    1
    32    33    40    1
    33    40    41    1
    34    40    42    1
    35    40    43    1
    36    30    31   ar
    37    31    32   ar
    38     5     6   ar
    39     6     7   ar
    40     7     2   ar
    41    22    18   ar
    42    32    27   ar
    43    13    16    1
    44    25    26    1
    45    34    35    1
@<TRIPOS>MOLECULE
*****
 43 45 0 0 0
SMALL
GASTEIGER

@<TRIPOS>ATOM
      1 C         142.7873  138.4053  157.3608 C.3     1  UNL1        0.1895
      2 C         142.0781  134.1653  156.0307 C.ar    1  UNL1        0.1247
      3 C         141.2445  135.2775  155.4669 C.ar    1  UNL1        0.0212
      4 C         141.4809  136.6909  155.9103 C.ar    1  UNL1        0.0182
      5 C         142.5509  136.9920  156.9175 C.ar    1  UNL1        0.0859
      6 N         143.3844  135.8797  157.4813 N.ar    1  UNL1       -0.2447
      7 C         143.1480  134.4663  157.0379 C.ar    1  UNL1        0.1168
      8 S         141.8417  132.7519  155.5874 S.O2    1  UNL1        0.0101
      9 O         141.2255  133.2540  154.3153 O.2     1  UNL1       -0.1686
     10 O         142.4578  132.2498  156.8595 O.2     1  UNL1       -0.1686
     11 C         140.3634  130.9905  154.3782 C.3     1  UNL1        0.0276
     12 C         141.6053  131.3386  155.1440 C.3     1  UNL1        0.1560
     13 N         143.0731  139.4719  156.3457 N.am    1  UNL1       -0.2934
     14 C         144.3133  139.3948  155.5055 C.2     1  UNL1        0.2296
     15 O         145.2678  138.2509  155.6806 O.2     1  UNL1       -0.2746
     16 H         142.4466  140.2227  156.2308 H       1  UNL1        0.1502
     17 C         144.5991  140.4615  154.4903 C.3     1  UNL1        0.1374
     18 C         145.6646  141.4834  154.7558 C.ar    1  UNL1        0.0975
     19 N         146.4862  141.5962  156.0057 N.ar    1  UNL1       -0.2407
     20 C         147.4249  142.7544  155.8405 C.ar    1  UNL1        0.1061
     21 C         147.1835  143.3574  154.4884 C.ar    1  UNL1        0.0572
     22 S         146.0956  142.5719  153.8181 S.2     1  UNL1       -0.0697
     23 C         142.7379  138.7520  158.8193 C.2     1  UNL1        0.2499
     24 O         142.3626  140.1396  159.2481 O.2     1  UNL1       -0.2726
     25 N         143.0637  137.7112  159.8491 N.am    1  UNL1       -0.2823
     26 H         143.3100  136.8005  159.5677 H       1  UNL1        0.1549
     27 C         143.0143  138.0580  161.3077 C.ar    1  UNL1        0.0503
     28 C         141.8377  137.6395  162.1386 C.ar    1  UNL1        0.0144
     29 C         141.7883  137.9863  163.5972 C.ar    1  UNL1       -0.0002
     30 C         142.9155  138.7515  164.2248 C.ar    1  UNL1        0.0182
     31 C         144.0922  139.1700  163.3937 C.ar    1  UNL1       -0.0002
     32 C         144.1415  138.8232  161.9353 C.ar    1  UNL1        0.0144
     33 C         142.8662  139.0983  165.6833 C.3     1  UNL1        0.2827
     34 O         144.1827  138.4103  165.8914 O.3     1  UNL1       -0.3692
     35 H         144.4363  138.4734  166.8255 H       1  UNL1        0.2112
     36 C         142.8168  139.4451  167.1418 C.3     1  UNL1        0.4311
     37 F         142.7674  139.7919  168.6004 F       1  UNL1       -0.1669
     38 F         143.0541  140.8878  166.8068 F       1  UNL1       -0.1669
     39 F         142.6742  138.6245  167.4431 F       1  UNL1       -0.1669
     40 C         141.5497  139.7864  165.4751 C.3     1  UNL1        0.4311
     41 F         140.2331  140.4745  165.2669 F       1  UNL1       -0.1669
     42 F         141.0599  139.2322  165.9623 F       1  UNL1       -0.1669
     43 F         141.8851  140.9526  164.5932 F       1  UNL1       -0.1669
@<TRIPOS>BOND
     1    11    12    1
     2    12     8    1
     3     8     9    2
     4     8    10    2
     5     8     2    1
     6     2     3   ar
     7     3     4   ar
     8     4     5   ar
     9     5     1    1
    10     1    13    1
    11    13    14   am
    12    14    15    2
    13    14    17    1
    14    17    18    1
    15    18    19   ar
    16    19    20   ar
    17    20    21   ar
    18    21    22   ar
    19     1    23    1
    20    23    24    2
    21    23    25   am
    22    25    27    1
    23    27    28   ar
    24    28    29   ar
    25    29    30   ar
    26    30    33    1
    27    33    34    1
    28    33    36    1
    29    36    37    1
    30    36    38    1
    31    36    39    1
    32    33    40    1
    33    40    41    1
    34    40    42    1
    35    40    43    1
    36    30    31   ar
    37    31    32   ar
    38     5     6   ar
    39     6     7   ar
    40     7     2   ar
    41    22    18   ar
    42    32    27   ar
    43    13    16    1
    44    25    26    1
    45    34    35    1
@<TRIPOS>MOLECULE
*****
 43 45 0 0 0
SMALL
GASTEIGER

@<TRIPOS>ATOM
      1 C         142.4974  138.1166  156.8881 C.3     1  UNL1        0.1895
      2 C         141.8187  133.8737  155.5512 C.ar    1  UNL1        0.1247
      3 C         142.8304  134.1712  156.6179 C.ar    1  UNL1        0.0212
      4 C         143.0566  135.5855  157.0635 C.ar    1  UNL1        0.0182
      5 C         142.2712  136.7023  156.4424 C.ar    1  UNL1        0.0859
      6 N         141.2594  136.4047  155.3757 N.ar    1  UNL1       -0.2447
      7 C         141.0332  134.9904  154.9301 C.ar    1  UNL1        0.1168
      8 S         141.5925  132.4594  155.1056 S.O2    1  UNL1        0.0101
      9 O         142.1145  131.9615  156.4207 O.2     1  UNL1       -0.1686
     10 O         141.0705  132.9573  153.7904 O.2     1  UNL1       -0.1686
     11 C         139.9749  130.4866  154.6142 C.3     1  UNL1        0.0276
     12 C         141.3663  131.0451  154.6599 C.3     1  UNL1        0.1560
     13 N         142.9195  139.1577  155.8942 N.am    1  UNL1       -0.2934
     14 C         144.2864  139.0972  155.2794 C.2     1  UNL1        0.2296
     15 O         145.2312  137.9956  155.6585 O.2     1  UNL1       -0.2746
     16 H         142.2994  139.8807  155.6453 H       1  UNL1        0.1502
     17 C         144.7084  140.1383  154.2854 C.3     1  UNL1        0.1374
     18 C         145.6784  141.2096  154.6876 C.ar    1  UNL1        0.0975
     19 N         146.3039  141.3695  156.0415 N.ar    1  UNL1       -0.2407
     20 C         147.2052  142.5678  155.9971 C.ar    1  UNL1        0.1061
     21 C         147.1367  143.1483  154.6157 C.ar    1  UNL1        0.0572
     22 S         146.1931  142.3089  153.8064 S.2     1  UNL1       -0.0697
     23 C         142.3015  138.4898  158.3276 C.2     1  UNL1        0.2499
     24 O         140.9308  138.8271  158.8352 O.2     1  UNL1       -0.2726
     25 N         143.4763  138.5257  159.2596 N.am    1  UNL1       -0.2823
     26 H         144.3759  138.3043  158.9265 H       1  UNL1        0.1549
     27 C         143.2803  138.8989  160.6992 C.ar    1  UNL1        0.0503
     28 C         143.6004  140.2887  161.1640 C.ar    1  UNL1        0.0144
     29 C         143.4045  140.6619  162.6036 C.ar    1  UNL1       -0.0002
     30 C         142.8885  139.6453  163.5784 C.ar    1  UNL1        0.0182
     31 C         142.5683  138.2555  163.1136 C.ar    1  UNL1       -0.0002
     32 C         142.7643  137.8823  161.6740 C.ar    1  UNL1        0.0144
     33 C         142.6925  140.0185  165.0179 C.3     1  UNL1        0.2827
     34 O         141.5179  140.8700  164.6373 O.3     1  UNL1       -0.3692
     35 H         141.1452  141.2811  165.4329 H       1  UNL1        0.2112
     36 C         142.4966  140.3916  166.4575 C.3     1  UNL1        0.4311
     37 F         142.3007  140.7648  167.8971 F       1  UNL1       -0.1669
     38 F         141.2299  139.5891  166.4931 F       1  UNL1       -0.1669
     39 F         143.2249  140.8889  166.5402 F       1  UNL1       -0.1669
     40 C         143.8672  139.1669  165.3986 C.3     1  UNL1        0.4311
     41 F         145.0419  138.3152  165.7792 F       1  UNL1       -0.1669
     42 F         144.4935  139.6800  165.0396 F       1  UNL1       -0.1669
     43 F         143.2545  138.0096  166.1304 F       1  UNL1       -0.1669
@<TRIPOS>BOND
     1    11    12    1
     2    12     8    1
     3     8     9    2
     4     8    10    2
     5     8     2    1
     6     2     3   ar
     7     3     4   ar
     8     4     5   ar
     9     5     1    1
    10     1    13    1
    11    13    14   am
    12    14    15    2
    13    14    17    1
    14    17    18    1
    15    18    19   ar
    16    19    20   ar
    17    20    21   ar
    18    21    22   ar
    19     1    23    1
    20    23    24    2
    21    23    25   am
    22    25    27    1
    23    27    28   ar
    24    28    29   ar
    25    29    30   ar
    26    30    33    1
    27    33    34    1
    28    33    36    1
    29    36    37    1
    30    36    38    1
    31    36    39    1
    32    33    40    1
    33    40    41    1
    34    40    42    1
    35    40    43    1
    36    30    31   ar
    37    31    32   ar
    38     5     6   ar
    39     6     7   ar
    40     7     2   ar
    41    22    18   ar
    42    32    27   ar
    43    13    16    1
    44    25    26    1
    45    34    35    1
@<TRIPOS>MOLECULE
*****
 43 45 0 0 0
SMALL
GASTEIGER

@<TRIPOS>ATOM
      1 C         143.4931  140.1990  157.3200 C.3     1  UNL1        0.1895
      2 C         142.2786  136.0539  156.0576 C.ar    1  UNL1        0.1247
      3 C         141.2886  136.9502  156.7406 C.ar    1  UNL1        0.0212
      4 C         141.6934  138.3319  157.1614 C.ar    1  UNL1        0.0182
      5 C         143.0883  138.8173  156.8992 C.ar    1  UNL1        0.0859
      6 N         144.0782  137.9210  156.2162 N.ar    1  UNL1       -0.2447
      7 C         143.6734  136.5393  155.7954 C.ar    1  UNL1        0.1168
      8 S         141.8737  134.6723  155.6368 S.O2    1  UNL1        0.0101
      9 O         142.6334  134.0969  156.7952 O.2     1  UNL1       -0.1686
     10 O         141.1141  135.2476  154.4784 O.2     1  UNL1       -0.1686
     11 C         142.1873  132.0967  155.7715 C.3     1  UNL1        0.0276
     12 C         141.4689  133.2906  155.2160 C.3     1  UNL1        0.1560
     13 N         144.4886  140.9698  156.5047 N.am    1  UNL1       -0.2934
     14 C         144.0240  142.0719  155.5995 C.2     1  UNL1        0.2296
     15 O         142.5638  142.4033  155.5096 O.2     1  UNL1       -0.2746
     16 H         145.4470  140.7524  156.5637 H       1  UNL1        0.1502
     17 C         145.0196  142.8428  154.7842 C.3     1  UNL1        0.1374
     18 C         146.4741  142.4798  154.8373 C.ar    1  UNL1        0.0975
     19 N         147.2664  142.1926  156.0781 N.ar    1  UNL1       -0.2407
     20 C         148.6736  141.8756  155.6665 C.ar    1  UNL1        0.1061
     21 C         148.7509  141.9668  154.1713 C.ar    1  UNL1        0.0572
     22 S         147.3915  142.3402  153.6588 S.2     1  UNL1       -0.0697
     23 C         142.9024  140.8098  158.5560 C.2     1  UNL1        0.2499
     24 O         143.4888  140.4973  159.9009 O.2     1  UNL1       -0.2726
     25 N         141.7253  141.7332  158.4473 N.am    1  UNL1       -0.2823
     26 H         141.3404  141.9383  157.5647 H       1  UNL1        0.1549
     27 C         141.1346  142.3441  159.6835 C.ar    1  UNL1        0.0503
     28 C         141.5349  143.7280  160.1010 C.ar    1  UNL1        0.0144
     29 C         140.9442  144.3389  161.3371 C.ar    1  UNL1       -0.0002
     30 C         139.9532  143.5657  162.1557 C.ar    1  UNL1        0.0182
     31 C         139.5529  142.1817  161.7382 C.ar    1  UNL1       -0.0002
     32 C         140.1436  141.5709  160.5021 C.ar    1  UNL1        0.0144
     33 C         139.3626  144.1765  163.3918 C.3     1  UNL1        0.2827
     34 O         138.3913  144.9466  162.5472 O.3     1  UNL1       -0.3692
     35 H         137.8218  145.4851  163.1187 H       1  UNL1        0.2112
     36 C         138.7719  144.7873  164.6279 C.3     1  UNL1        0.4311
     37 F         138.1812  145.3982  165.8641 F       1  UNL1       -0.1669
     38 F         137.4801  144.0719  164.3642 F       1  UNL1       -0.1669
     39 F         139.4865  145.2506  164.8715 F       1  UNL1       -0.1669
     40 C         140.3338  143.4064  164.2365 C.3     1  UNL1        0.4311
     41 F         141.3051  142.6362  165.0812 F       1  UNL1       -0.1669
     42 F         141.0559  143.8728  164.0232 F       1  UNL1       -0.1669
     43 F         139.4890  142.3560  164.8948 F       1  UNL1       -0.1669
@<TRIPOS>BOND
     1    11    12    1
     2    12     8    1
     3     8     9    2
     4     8    10    2
     5     8     2    1
     6     2     3   ar
     7     3     4   ar
     8     4     5   ar
     9     5     1    1
    10     1    13    1
    11    13    14   am
    12    14    15    2
    13    14    17    1
    14    17    18    1
    15    18    19   ar
    16    19    20   ar
    17    20    21   ar
    18    21    22   ar
    19     1    23    1
    20    23    24    2
    21    23    25   am
    22    25    27    1
    23    27    28   ar
    24    28    29   ar
    25    29    30   ar
    26    30    33    1
    27    33    34    1
    28    33    36    1
    29    36    37    1
    30    36    38    1
    31    36    39    1
    32    33    40    1
    33    40    41    1
    34    40    42    1
    35    40    43    1
    36    30    31   ar
    37    31    32   ar
    38     5     6   ar
    39     6     7   ar
    40     7     2   ar
    41    22    18   ar
    42    32    27   ar
    43    13    16    1
    44    25    26    1
    45    34    35    1
