@<TRIPOS>MOLECULE
*****
 46 51 0 0 0
SMALL
GASTEIGER

@<TRIPOS>ATOM
      1 C         140.8450  142.5386  168.7994 C.3     1  UNL1        0.0821
      2 C         141.5832  143.2925  169.8654 C.3     1  UNL1        0.0194
      3 C         142.3514  142.3004  170.6873 C.3     1  UNL1        0.0188
      4 C         142.0880  140.9332  170.1291 C.3     1  UNL1        0.0722
      5 N         141.1569  141.0805  168.9623 N.3     1  UNL1       -0.2721
      6 C         139.9516  143.1376  167.7539 C.3     1  UNL1        0.1465
      7 O         138.3539  144.8384  165.8685 O.2     1  UNL1       -0.2655
      8 C         139.7057  144.3327  165.4601 C.ar    1  UNL1        0.2763
      9 C         140.2586  144.6774  164.1090 C.ar    1  UNL1        0.0588
     10 C         139.4598  145.5277  163.1663 C.ar    1  UNL1        0.0048
     11 C         140.0127  145.8724  161.8153 C.ar    1  UNL1        0.0002
     12 C         141.3645  145.3667  161.4068 C.ar    1  UNL1        0.0000
     13 C         142.1635  144.5163  162.3495 C.ar    1  UNL1        0.0014
     14 C         141.6105  144.1716  163.7006 C.ar    1  UNL1        0.0202
     15 C         142.4093  143.3212  164.6433 C.ar    1  UNL1        0.0832
     16 N         141.8564  142.9766  165.9944 N.ar    1  UNL1       -0.1708
     17 N         140.5046  143.4823  166.4028 N.ar    1  UNL1       -0.2156
     18 C         143.7611  142.8155  164.2349 C.3     1  UNL1        0.0738
     19 C         143.8850  141.5094  163.5077 C.ar    1  UNL1       -0.0161
     20 C         143.8292  140.2185  164.2696 C.ar    1  UNL1       -0.0030
     21 C         143.9531  138.9125  163.5423 C.ar    1  UNL1        0.0111
     22 C         144.1329  138.8973  162.0532 C.ar    1  UNL1        0.0577
     23 CL        144.2568  137.5912  161.3260 Cl      1  UNL1       -0.0822
     24 C         144.1887  140.1882  161.2913 C.ar    1  UNL1        0.0111
     25 C         144.0648  141.4942  162.0185 C.ar    1  UNL1       -0.0030
     26 C         140.6303  139.9653  168.1084 C.3     1  UNL1        0.0721
     27 C         141.2594  139.6787  166.7772 C.3     1  UNL1        0.0177
     28 C         140.3980  139.5151  165.5602 C.3     1  UNL1        0.0061
     29 C         139.2324  140.4325  165.3375 C.3     1  UNL1        0.0264
     30 C         139.0589  141.1170  164.0141 C.ar    1  UNL1       -0.0220
     31 C         137.7611  141.7927  163.6835 C.ar    1  UNL1       -0.0012
     32 C         137.5876  142.4771  162.3601 C.ar    1  UNL1        0.0366
     33 C         138.7119  142.4859  161.3672 C.ar    1  UNL1        0.1385
     34 C         140.0096  141.8102  161.6977 C.ar    1  UNL1        0.0366
     35 C         140.1831  141.1257  163.0211 C.ar    1  UNL1       -0.0012
     36 O         138.5384  143.1703  160.0437 O.3     1  UNL1       -0.4754
     37 C         139.0102  142.5023  158.7863 C.3     1  UNL1        0.2068
     38 C         138.2667  141.3190  158.2414 C.3     1  UNL1        0.0646
     39 C         138.8811  139.9521  158.3065 C.3     1  UNL1        0.0759
     40 N         139.0322  139.2599  159.6286 N.3     1  UNL1       -0.2726
     41 C         137.7938  139.1902  160.4720 C.3     1  UNL1        0.0721
     42 C         137.6190  138.5722  161.8277 C.3     1  UNL1        0.0173
     43 C         138.6396  137.8715  162.6746 C.3     1  UNL1        0.0015
     44 C         140.0870  137.6156  162.3752 C.3     1  UNL1        0.0015
     45 C         140.8712  137.9973  161.1549 C.3     1  UNL1        0.0173
     46 C         140.4019  138.7290  159.9325 C.3     1  UNL1        0.0721
@<TRIPOS>BOND
     1     7     8    2
     2     8     9   ar
     3     9    10   ar
     4    10    11   ar
     5    11    12   ar
     6    12    13   ar
     7    13    14   ar
     8    14    15   ar
     9    15    18    1
    10    18    19    1
    11    19    20   ar
    12    20    21   ar
    13    21    22   ar
    14    22    23    1
    15    22    24   ar
    16    24    25   ar
    17    15    16   ar
    18    16    17   ar
    19    17     6    1
    20     1     6    1
    21     1     2    1
    22     2     3    1
    23     3     4    1
    24     4     5    1
    25     5    26    1
    26    26    27    1
    27    27    28    1
    28    28    29    1
    29    29    30    1
    30    30    31   ar
    31    31    32   ar
    32    32    33   ar
    33    33    36    1
    34    36    37    1
    35    37    38    1
    36    38    39    1
    37    39    40    1
    38    40    41    1
    39    41    42    1
    40    42    43    1
    41    43    44    1
    42    44    45    1
    43    45    46    1
    44    33    34   ar
    45    34    35   ar
    46    17     8   ar
    47     5     1    1
    48    35    30   ar
    49    14     9   ar
    50    25    19   ar
    51    46    40    1
@<TRIPOS>MOLECULE
*****
 46 51 0 0 0
SMALL
GASTEIGER

@<TRIPOS>ATOM
      1 C         140.6110  141.5926  158.3545 C.3     1  UNL1        0.0821
      2 C         140.6793  143.0271  157.9212 C.3     1  UNL1        0.0194
      3 C         139.2897  143.5904  157.9624 C.3     1  UNL1        0.0188
      4 C         138.3625  142.5040  158.4212 C.3     1  UNL1        0.0722
      5 N         139.1792  141.2694  158.6635 N.3     1  UNL1       -0.2721
      6 C         141.7709  140.6474  158.4601 C.3     1  UNL1        0.1465
      7 O         143.9902  142.4356  159.3968 O.2     1  UNL1       -0.2655
      8 C         143.5301  141.2971  160.2582 C.ar    1  UNL1        0.2763
      9 C         144.1797  141.0527  161.5880 C.ar    1  UNL1        0.0588
     10 C         145.2893  141.9468  162.0563 C.ar    1  UNL1        0.0048
     11 C         145.9389  141.7023  163.3861 C.ar    1  UNL1        0.0002
     12 C         145.4789  140.5638  164.2475 C.ar    1  UNL1        0.0000
     13 C         144.3692  139.6697  163.7792 C.ar    1  UNL1        0.0014
     14 C         143.7196  139.9141  162.4495 C.ar    1  UNL1        0.0202
     15 C         142.6100  139.0201  161.9811 C.ar    1  UNL1        0.0832
     16 N         141.9604  139.2645  160.6514 N.ar    1  UNL1       -0.1708
     17 N         142.4205  140.4030  159.7899 N.ar    1  UNL1       -0.2156
     18 C         142.1500  137.8816  162.8426 C.3     1  UNL1        0.0738
     19 C         141.0509  138.0932  163.8413 C.ar    1  UNL1       -0.0161
     20 C         141.2419  139.0583  164.9735 C.ar    1  UNL1       -0.0030
     21 C         140.1428  139.2698  165.9721 C.ar    1  UNL1        0.0111
     22 C         138.8527  138.5163  165.8384 C.ar    1  UNL1        0.0577
     23 CL        137.7536  138.7279  166.8371 Cl      1  UNL1       -0.0822
     24 C         138.6617  137.5512  164.7062 C.ar    1  UNL1        0.0111
     25 C         139.7608  137.3396  163.7076 C.ar    1  UNL1       -0.0030
     26 C         138.6559  139.9442  159.1325 C.3     1  UNL1        0.0721
     27 C         137.5317  139.8901  160.1241 C.3     1  UNL1        0.0177
     28 C         137.7865  139.4071  161.5211 C.3     1  UNL1        0.0061
     29 C         137.5241  140.3131  162.6875 C.3     1  UNL1        0.0264
     30 C         138.5950  141.2472  163.1675 C.ar    1  UNL1       -0.0220
     31 C         139.8661  141.3963  162.3851 C.ar    1  UNL1       -0.0012
     32 C         140.9371  142.3304  162.8651 C.ar    1  UNL1        0.0366
     33 C         140.7370  143.1156  164.1275 C.ar    1  UNL1        0.1385
     34 C         139.4659  142.9665  164.9098 C.ar    1  UNL1        0.0366
     35 C         138.3950  142.0324  164.4298 C.ar    1  UNL1       -0.0012
     36 O         141.8080  144.0497  164.6074 O.3     1  UNL1       -0.4754
     37 C         143.2058  143.5458  164.8130 C.3     1  UNL1        0.2068
     38 C         143.6002  142.9445  166.1294 C.3     1  UNL1        0.0646
     39 C         142.9265  141.6956  166.6154 C.3     1  UNL1        0.0759
     40 N         142.2397  141.6842  167.9489 N.3     1  UNL1       -0.2726
     41 C         141.1809  142.7284  168.1446 C.3     1  UNL1        0.0721
     42 C         140.3233  142.9765  169.3501 C.3     1  UNL1        0.0173
     43 C         140.3129  142.2415  170.6576 C.3     1  UNL1        0.0015
     44 C         141.1574  141.0769  171.0825 C.3     1  UNL1        0.0015
     45 C         142.2209  140.3597  170.3050 C.3     1  UNL1        0.0173
     46 C         142.7026  140.6299  168.9104 C.3     1  UNL1        0.0721
@<TRIPOS>BOND
     1     7     8    2
     2     8     9   ar
     3     9    10   ar
     4    10    11   ar
     5    11    12   ar
     6    12    13   ar
     7    13    14   ar
     8    14    15   ar
     9    15    18    1
    10    18    19    1
    11    19    20   ar
    12    20    21   ar
    13    21    22   ar
    14    22    23    1
    15    22    24   ar
    16    24    25   ar
    17    15    16   ar
    18    16    17   ar
    19    17     6    1
    20     1     6    1
    21     1     2    1
    22     2     3    1
    23     3     4    1
    24     4     5    1
    25     5    26    1
    26    26    27    1
    27    27    28    1
    28    28    29    1
    29    29    30    1
    30    30    31   ar
    31    31    32   ar
    32    32    33   ar
    33    33    36    1
    34    36    37    1
    35    37    38    1
    36    38    39    1
    37    39    40    1
    38    40    41    1
    39    41    42    1
    40    42    43    1
    41    43    44    1
    42    44    45    1
    43    45    46    1
    44    33    34   ar
    45    34    35   ar
    46    17     8   ar
    47     5     1    1
    48    35    30   ar
    49    14     9   ar
    50    25    19   ar
    51    46    40    1
@<TRIPOS>MOLECULE
*****
 46 51 0 0 0
SMALL
GASTEIGER

@<TRIPOS>ATOM
      1 C         142.2023  140.1726  157.0456 C.3     1  UNL1        0.0821
      2 C         140.9441  140.5482  156.3204 C.3     1  UNL1        0.0194
      3 C         141.0980  141.9551  155.8234 C.3     1  UNL1        0.0188
      4 C         142.4513  142.4490  156.2415 C.3     1  UNL1        0.0722
      5 N         143.1337  141.3474  156.9968 N.3     1  UNL1       -0.2721
      6 C         142.4802  138.8538  157.7040 C.3     1  UNL1        0.1465
      7 O         139.6553  138.3224  158.5627 O.2     1  UNL1       -0.2655
      8 C         140.7495  138.3933  159.5862 C.ar    1  UNL1        0.2763
      9 C         140.4313  138.1985  161.0391 C.ar    1  UNL1        0.0588
     10 C         139.0189  137.9328  161.4684 C.ar    1  UNL1        0.0048
     11 C         138.7007  137.7380  162.9213 C.ar    1  UNL1        0.0002
     12 C         139.7949  137.8089  163.9448 C.ar    1  UNL1        0.0000
     13 C         141.2074  138.0746  163.5154 C.ar    1  UNL1        0.0014
     14 C         141.5256  138.2694  162.0626 C.ar    1  UNL1        0.0202
     15 C         142.9380  138.5352  161.6332 C.ar    1  UNL1        0.0832
     16 N         143.2562  138.7299  160.1804 N.ar    1  UNL1       -0.1708
     17 N         142.1620  138.6590  159.1569 N.ar    1  UNL1       -0.2156
     18 C         144.0323  138.6061  162.6567 C.3     1  UNL1        0.0738
     19 C         144.2618  139.8753  163.4226 C.ar    1  UNL1       -0.0161
     20 C         145.2047  140.9129  162.8896 C.ar    1  UNL1       -0.0030
     21 C         145.4342  142.1820  163.6555 C.ar    1  UNL1        0.0111
     22 C         144.7206  142.4135  164.9544 C.ar    1  UNL1        0.0577
     23 CL        144.9501  143.6827  165.7203 Cl      1  UNL1       -0.0822
     24 C         143.7777  141.3759  165.4875 C.ar    1  UNL1        0.0111
     25 C         143.5482  140.1068  164.7216 C.ar    1  UNL1       -0.0030
     26 C         144.5066  141.4096  157.5979 C.3     1  UNL1        0.0721
     27 C         144.8525  142.5012  158.5667 C.3     1  UNL1        0.0177
     28 C         143.8031  143.0440  159.4909 C.3     1  UNL1        0.0061
     29 C         142.8826  142.1060  160.2139 C.3     1  UNL1        0.0264
     30 C         142.2975  142.5009  161.5375 C.ar    1  UNL1       -0.0220
     31 C         142.7090  143.7900  162.1847 C.ar    1  UNL1       -0.0012
     32 C         142.1239  144.1849  163.5082 C.ar    1  UNL1        0.0366
     33 C         141.1274  143.2908  164.1846 C.ar    1  UNL1        0.1385
     34 C         140.7159  142.0018  163.5373 C.ar    1  UNL1        0.0366
     35 C         141.3010  141.6068  162.2138 C.ar    1  UNL1       -0.0012
     36 O         140.5423  143.6858  165.5081 O.3     1  UNL1       -0.4754
     37 C         139.0767  143.9842  165.6212 C.3     1  UNL1        0.2068
     38 C         138.3957  144.8080  164.5688 C.3     1  UNL1        0.0646
     39 C         137.7293  144.1361  163.4050 C.3     1  UNL1        0.0759
     40 N         138.4106  144.0997  162.0691 N.3     1  UNL1       -0.2726
     41 C         138.1110  142.9014  161.2182 C.3     1  UNL1        0.0721
     42 C         138.6282  142.5738  159.8488 C.3     1  UNL1        0.0173
     43 C         139.5727  143.3637  158.9921 C.3     1  UNL1        0.0015
     44 C         140.2333  144.6763  159.2933 C.3     1  UNL1        0.0015
     45 C         140.1125  145.5231  160.5255 C.3     1  UNL1        0.0173
     46 C         139.3014  145.2666  161.7608 C.3     1  UNL1        0.0721
@<TRIPOS>BOND
     1     7     8    2
     2     8     9   ar
     3     9    10   ar
     4    10    11   ar
     5    11    12   ar
     6    12    13   ar
     7    13    14   ar
     8    14    15   ar
     9    15    18    1
    10    18    19    1
    11    19    20   ar
    12    20    21   ar
    13    21    22   ar
    14    22    23    1
    15    22    24   ar
    16    24    25   ar
    17    15    16   ar
    18    16    17   ar
    19    17     6    1
    20     1     6    1
    21     1     2    1
    22     2     3    1
    23     3     4    1
    24     4     5    1
    25     5    26    1
    26    26    27    1
    27    27    28    1
    28    28    29    1
    29    29    30    1
    30    30    31   ar
    31    31    32   ar
    32    32    33   ar
    33    33    36    1
    34    36    37    1
    35    37    38    1
    36    38    39    1
    37    39    40    1
    38    40    41    1
    39    41    42    1
    40    42    43    1
    41    43    44    1
    42    44    45    1
    43    45    46    1
    44    33    34   ar
    45    34    35   ar
    46    17     8   ar
    47     5     1    1
    48    35    30   ar
    49    14     9   ar
    50    25    19   ar
    51    46    40    1
@<TRIPOS>MOLECULE
*****
 46 51 0 0 0
SMALL
GASTEIGER

@<TRIPOS>ATOM
      1 C         138.1428  141.6146  155.6959 C.3     1  UNL1        0.0821
      2 C         136.7329  142.0506  155.4278 C.3     1  UNL1        0.0194
      3 C         136.7251  143.5457  155.3066 C.3     1  UNL1        0.0188
      4 C         138.1303  144.0337  155.4998 C.3     1  UNL1        0.0722
      5 N         139.0065  142.8402  155.7404 N.3     1  UNL1       -0.2721
      6 C         138.6075  140.2012  155.8861 C.3     1  UNL1        0.1465
      7 O         141.3744  139.0769  156.1701 O.2     1  UNL1       -0.2655
      8 C         140.4820  139.1852  157.3708 C.ar    1  UNL1        0.2763
      9 C         140.9729  138.7313  158.7136 C.ar    1  UNL1        0.0588
     10 C         142.3563  138.1692  158.8556 C.ar    1  UNL1        0.0048
     11 C         142.8473  137.7154  160.1983 C.ar    1  UNL1        0.0002
     12 C         141.9548  137.8236  161.3991 C.ar    1  UNL1        0.0000
     13 C         140.5714  138.3858  161.2571 C.ar    1  UNL1        0.0014
     14 C         140.0804  138.8396  159.9143 C.ar    1  UNL1        0.0202
     15 C         138.6970  139.4018  159.7723 C.ar    1  UNL1        0.0832
     16 N         138.2061  139.8556  158.4296 N.ar    1  UNL1       -0.1708
     17 N         139.0985  139.7473  157.2288 N.ar    1  UNL1       -0.2156
     18 C         137.8046  139.5101  160.9730 C.3     1  UNL1        0.0738
     19 C         137.8807  140.7192  161.8575 C.ar    1  UNL1       -0.0161
     20 C         138.0152  142.0846  161.2513 C.ar    1  UNL1       -0.0030
     21 C         138.0914  143.2937  162.1358 C.ar    1  UNL1        0.0111
     22 C         138.0330  143.1373  163.6265 C.ar    1  UNL1        0.0577
     23 CL        138.1091  144.3465  164.5110 Cl      1  UNL1       -0.0822
     24 C         137.8985  141.7719  164.2327 C.ar    1  UNL1        0.0111
     25 C         137.8224  140.5629  163.3482 C.ar    1  UNL1       -0.0030
     26 C         140.4865  142.8676  155.9828 C.3     1  UNL1        0.0721
     27 C         141.0233  143.3735  157.2889 C.3     1  UNL1        0.0177
     28 C         140.6595  142.6804  158.5684 C.3     1  UNL1        0.0061
     29 C         141.7374  142.2097  159.4993 C.3     1  UNL1        0.0264
     30 C         141.6913  142.5848  160.9509 C.ar    1  UNL1       -0.0220
     31 C         141.5843  141.5167  161.9985 C.ar    1  UNL1       -0.0012
     32 C         141.5382  141.8919  163.4501 C.ar    1  UNL1        0.0366
     33 C         141.5990  143.3352  163.8541 C.ar    1  UNL1        0.1385
     34 C         141.7060  144.4033  162.8064 C.ar    1  UNL1        0.0366
     35 C         141.7521  144.0281  161.3548 C.ar    1  UNL1       -0.0012
     36 O         141.5529  143.7103  165.3057 O.3     1  UNL1       -0.4754
     37 C         140.8765  142.8059  166.2929 C.3     1  UNL1        0.2068
     38 C         141.6619  142.2066  167.4216 C.3     1  UNL1        0.0646
     39 C         141.2889  140.8580  167.9620 C.3     1  UNL1        0.0759
     40 N         140.6169  139.8536  167.0734 N.3     1  UNL1       -0.2726
     41 C         141.4959  139.2005  166.0484 C.3     1  UNL1        0.0721
     42 C         141.1300  138.1675  165.0241 C.3     1  UNL1        0.0173
     43 C         139.7946  137.5326  164.7719 C.3     1  UNL1        0.0015
     44 C         138.4953  137.7739  165.4816 C.3     1  UNL1        0.0015
     45 C         138.2106  138.7096  166.6189 C.3     1  UNL1        0.0173
     46 C         139.1547  139.6352  167.3273 C.3     1  UNL1        0.0721
@<TRIPOS>BOND
     1     7     8    2
     2     8     9   ar
     3     9    10   ar
     4    10    11   ar
     5    11    12   ar
     6    12    13   ar
     7    13    14   ar
     8    14    15   ar
     9    15    18    1
    10    18    19    1
    11    19    20   ar
    12    20    21   ar
    13    21    22   ar
    14    22    23    1
    15    22    24   ar
    16    24    25   ar
    17    15    16   ar
    18    16    17   ar
    19    17     6    1
    20     1     6    1
    21     1     2    1
    22     2     3    1
    23     3     4    1
    24     4     5    1
    25     5    26    1
    26    26    27    1
    27    27    28    1
    28    28    29    1
    29    29    30    1
    30    30    31   ar
    31    31    32   ar
    32    32    33   ar
    33    33    36    1
    34    36    37    1
    35    37    38    1
    36    38    39    1
    37    39    40    1
    38    40    41    1
    39    41    42    1
    40    42    43    1
    41    43    44    1
    42    44    45    1
    43    45    46    1
    44    33    34   ar
    45    34    35   ar
    46    17     8   ar
    47     5     1    1
    48    35    30   ar
    49    14     9   ar
    50    25    19   ar
    51    46    40    1
@<TRIPOS>MOLECULE
*****
 46 51 0 0 0
SMALL
GASTEIGER

@<TRIPOS>ATOM
      1 C         140.0084  141.9797  156.3164 C.3     1  UNL1        0.0821
      2 C         138.8490  142.5086  155.5253 C.3     1  UNL1        0.0194
      3 C         138.8308  144.0014  155.6712 C.3     1  UNL1        0.0188
      4 C         139.9790  144.3951  156.5525 C.3     1  UNL1        0.0722
      5 N         140.7068  143.1456  156.9513 N.3     1  UNL1       -0.2721
      6 C         140.4006  140.5380  156.4494 C.3     1  UNL1        0.1465
      7 O         137.8231  140.0938  157.9188 O.2     1  UNL1       -0.2655
      8 C         139.1212  139.6626  158.5343 C.ar    1  UNL1        0.2763
      9 C         139.1306  139.0093  159.8845 C.ar    1  UNL1        0.0588
     10 C         137.8418  138.7872  160.6192 C.ar    1  UNL1        0.0048
     11 C         137.8512  138.1340  161.9695 C.ar    1  UNL1        0.0002
     12 C         139.1493  137.7028  162.5850 C.ar    1  UNL1        0.0000
     13 C         140.4382  137.9249  161.8503 C.ar    1  UNL1        0.0014
     14 C         140.4288  138.5781  160.5001 C.ar    1  UNL1        0.0202
     15 C         141.7175  138.8002  159.7654 C.ar    1  UNL1        0.0832
     16 N         141.7081  139.4535  158.4151 N.ar    1  UNL1       -0.1708
     17 N         140.4100  139.8847  157.7996 N.ar    1  UNL1       -0.2156
     18 C         143.0156  138.3691  160.3809 C.3     1  UNL1        0.0738
     19 C         143.7096  139.2594  161.3688 C.ar    1  UNL1       -0.0161
     20 C         144.0012  138.7600  162.7528 C.ar    1  UNL1       -0.0030
     21 C         144.6951  139.6503  163.7406 C.ar    1  UNL1        0.0111
     22 C         145.0974  141.0400  163.3444 C.ar    1  UNL1        0.0577
     23 CL        145.7914  141.9303  164.3322 Cl      1  UNL1       -0.0822
     24 C         144.8058  141.5393  161.9603 C.ar    1  UNL1        0.0111
     25 C         144.1119  140.6490  160.9725 C.ar    1  UNL1       -0.0030
     26 C         141.9200  143.0744  157.8305 C.3     1  UNL1        0.0721
     27 C         141.7633  143.0047  159.3206 C.3     1  UNL1        0.0177
     28 C         140.6205  143.7102  159.9885 C.3     1  UNL1        0.0061
     29 C         139.3479  142.9704  160.2768 C.3     1  UNL1        0.0264
     30 C         139.1704  142.2665  161.5895 C.ar    1  UNL1       -0.0220
     31 C         140.3425  141.6019  162.2486 C.ar    1  UNL1       -0.0012
     32 C         140.1650  140.8981  163.5613 C.ar    1  UNL1        0.0366
     33 C         138.8155  140.8588  164.2148 C.ar    1  UNL1        0.1385
     34 C         137.6434  141.5234  163.5557 C.ar    1  UNL1        0.0366
     35 C         137.8208  142.2272  162.2430 C.ar    1  UNL1       -0.0012
     36 O         138.6380  140.1549  165.5275 O.3     1  UNL1       -0.4754
     37 C         139.7912  140.0424  166.4800 C.3     1  UNL1        0.2068
     38 C         139.9507  141.0428  167.5862 C.3     1  UNL1        0.0646
     39 C         140.9713  142.1356  167.4678 C.3     1  UNL1        0.0759
     40 N         141.0207  142.9852  166.2326 N.3     1  UNL1       -0.2726
     41 C         139.7596  143.7269  165.9020 C.3     1  UNL1        0.0721
     42 C         139.4909  144.6474  164.7483 C.3     1  UNL1        0.0173
     43 C         140.4171  145.0533  163.6405 C.3     1  UNL1        0.0015
     44 C         141.8407  144.6391  163.4126 C.3     1  UNL1        0.0015
     45 C         142.6896  143.7167  164.2363 C.3     1  UNL1        0.0173
     46 C         142.3248  142.9806  165.4912 C.3     1  UNL1        0.0721
@<TRIPOS>BOND
     1     7     8    2
     2     8     9   ar
     3     9    10   ar
     4    10    11   ar
     5    11    12   ar
     6    12    13   ar
     7    13    14   ar
     8    14    15   ar
     9    15    18    1
    10    18    19    1
    11    19    20   ar
    12    20    21   ar
    13    21    22   ar
    14    22    23    1
    15    22    24   ar
    16    24    25   ar
    17    15    16   ar
    18    16    17   ar
    19    17     6    1
    20     1     6    1
    21     1     2    1
    22     2     3    1
    23     3     4    1
    24     4     5    1
    25     5    26    1
    26    26    27    1
    27    27    28    1
    28    28    29    1
    29    29    30    1
    30    30    31   ar
    31    31    32   ar
    32    32    33   ar
    33    33    36    1
    34    36    37    1
    35    37    38    1
    36    38    39    1
    37    39    40    1
    38    40    41    1
    39    41    42    1
    40    42    43    1
    41    43    44    1
    42    44    45    1
    43    45    46    1
    44    33    34   ar
    45    34    35   ar
    46    17     8   ar
    47     5     1    1
    48    35    30   ar
    49    14     9   ar
    50    25    19   ar
    51    46    40    1
@<TRIPOS>MOLECULE
*****
 46 51 0 0 0
SMALL
GASTEIGER

@<TRIPOS>ATOM
      1 C         142.8672  139.5166  156.1003 C.3     1  UNL1        0.0821
      2 C         143.9068  138.8980  155.2133 C.3     1  UNL1        0.0194
      3 C         143.9842  137.4360  155.5398 C.3     1  UNL1        0.0188
      4 C         142.9925  137.1510  156.6286 C.3     1  UNL1        0.0722
      5 N         142.3022  138.4369  156.9750 N.3     1  UNL1       -0.2721
      6 C         142.4636  140.9612  156.1107 C.3     1  UNL1        0.1465
      7 O         139.9888  142.4659  156.8924 O.2     1  UNL1       -0.2655
      8 C         141.1867  142.4720  157.7951 C.ar    1  UNL1        0.2763
      9 C         141.1472  143.2304  159.0887 C.ar    1  UNL1        0.0588
     10 C         139.9098  143.9827  159.4795 C.ar    1  UNL1        0.0048
     11 C         139.8704  144.7411  160.7731 C.ar    1  UNL1        0.0002
     12 C         141.0683  144.7471  161.6758 C.ar    1  UNL1        0.0000
     13 C         142.3058  143.9948  161.2849 C.ar    1  UNL1        0.0014
     14 C         142.3452  143.2364  159.9914 C.ar    1  UNL1        0.0202
     15 C         143.5826  142.4840  159.6005 C.ar    1  UNL1        0.0832
     16 N         143.6221  141.7256  158.3070 N.ar    1  UNL1       -0.1708
     17 N         142.4242  141.7196  157.4043 N.ar    1  UNL1       -0.2156
     18 C         144.7805  142.4901  160.5032 C.3     1  UNL1        0.0738
     19 C         144.8348  141.5661  161.6836 C.ar    1  UNL1       -0.0161
     20 C         145.4297  142.0367  162.9777 C.ar    1  UNL1       -0.0030
     21 C         145.4840  141.1127  164.1580 C.ar    1  UNL1        0.0111
     22 C         144.9434  139.7181  164.0443 C.ar    1  UNL1        0.0577
     23 CL        144.9977  138.7941  165.2247 Cl      1  UNL1       -0.0822
     24 C         144.3485  139.2475  162.7502 C.ar    1  UNL1        0.0111
     25 C         144.2943  140.1715  161.5699 C.ar    1  UNL1       -0.0030
     26 C         141.2344  138.6123  158.0137 C.3     1  UNL1        0.0721
     27 C         141.6094  138.9636  159.4229 C.3     1  UNL1        0.0177
     28 C         140.5648  138.9632  160.4993 C.3     1  UNL1        0.0061
     29 C         139.7068  140.1750  160.7125 C.3     1  UNL1        0.0264
     30 C         139.8276  140.9657  161.9814 C.ar    1  UNL1       -0.0220
     31 C         141.1189  140.9665  162.7446 C.ar    1  UNL1       -0.0012
     32 C         141.2397  141.7572  164.0135 C.ar    1  UNL1        0.0366
     33 C         140.0692  142.5473  164.5192 C.ar    1  UNL1        0.1385
     34 C         138.7779  142.5465  163.7560 C.ar    1  UNL1        0.0366
     35 C         138.6571  141.7558  162.4871 C.ar    1  UNL1       -0.0012
     36 O         140.1900  143.3380  165.7881 O.3     1  UNL1       -0.4754
     37 C         140.9528  142.7772  166.9515 C.3     1  UNL1        0.2068
     38 C         140.3546  141.6810  167.7824 C.3     1  UNL1        0.0646
     39 C         140.8701  140.2780  167.6566 C.3     1  UNL1        0.0759
     40 N         140.5100  139.4512  166.4581 N.3     1  UNL1       -0.2726
     41 C         139.0742  139.5175  166.0293 C.3     1  UNL1        0.0721
     42 C         138.4069  138.8163  164.8833 C.3     1  UNL1        0.0173
     43 C         139.0108  137.8757  163.8831 C.3     1  UNL1        0.0015
     44 C         140.4311  137.4039  163.7818 C.3     1  UNL1        0.0015
     45 C         141.5982  137.7562  164.6557 C.3     1  UNL1        0.0173
     46 C         141.6334  138.6673  165.8468 C.3     1  UNL1        0.0721
@<TRIPOS>BOND
     1     7     8    2
     2     8     9   ar
     3     9    10   ar
     4    10    11   ar
     5    11    12   ar
     6    12    13   ar
     7    13    14   ar
     8    14    15   ar
     9    15    18    1
    10    18    19    1
    11    19    20   ar
    12    20    21   ar
    13    21    22   ar
    14    22    23    1
    15    22    24   ar
    16    24    25   ar
    17    15    16   ar
    18    16    17   ar
    19    17     6    1
    20     1     6    1
    21     1     2    1
    22     2     3    1
    23     3     4    1
    24     4     5    1
    25     5    26    1
    26    26    27    1
    27    27    28    1
    28    28    29    1
    29    29    30    1
    30    30    31   ar
    31    31    32   ar
    32    32    33   ar
    33    33    36    1
    34    36    37    1
    35    37    38    1
    36    38    39    1
    37    39    40    1
    38    40    41    1
    39    41    42    1
    40    42    43    1
    41    43    44    1
    42    44    45    1
    43    45    46    1
    44    33    34   ar
    45    34    35   ar
    46    17     8   ar
    47     5     1    1
    48    35    30   ar
    49    14     9   ar
    50    25    19   ar
    51    46    40    1
@<TRIPOS>MOLECULE
*****
 46 51 0 0 0
SMALL
GASTEIGER

@<TRIPOS>ATOM
      1 C         138.5962  141.4832  156.2383 C.3     1  UNL1        0.0821
      2 C         137.3089  141.0422  155.6070 C.3     1  UNL1        0.0194
      3 C         136.3972  142.2311  155.5344 C.3     1  UNL1        0.0188
      4 C         137.1209  143.4068  156.1208 C.3     1  UNL1        0.0722
      5 N         138.4800  142.9446  156.5558 N.3     1  UNL1       -0.2721
      6 C         139.7900  140.6151  156.5052 C.3     1  UNL1        0.1465
      7 O         142.7225  140.2828  157.0439 O.2     1  UNL1       -0.2655
      8 C         141.7434  140.2549  158.1799 C.ar    1  UNL1        0.2763
      9 C         142.2305  140.0609  159.5853 C.ar    1  UNL1        0.0588
     10 C         143.6966  139.8947  159.8547 C.ar    1  UNL1        0.0048
     11 C         144.1837  139.7006  161.2600 C.ar    1  UNL1        0.0002
     12 C         143.2046  139.6728  162.3960 C.ar    1  UNL1        0.0000
     13 C         141.7383  139.8389  162.1267 C.ar    1  UNL1        0.0014
     14 C         141.2513  140.0330  160.7213 C.ar    1  UNL1        0.0202
     15 C         139.7851  140.1991  160.4519 C.ar    1  UNL1        0.0832
     16 N         139.2980  140.3932  159.0465 N.ar    1  UNL1       -0.1708
     17 N         140.2771  140.4211  157.9105 N.ar    1  UNL1       -0.2156
     18 C         138.8060  140.1713  161.5879 C.3     1  UNL1        0.0738
     19 C         138.6891  141.3514  162.5065 C.ar    1  UNL1       -0.0161
     20 C         139.1145  141.2311  163.9398 C.ar    1  UNL1       -0.0030
     21 C         138.9977  142.4112  164.8583 C.ar    1  UNL1        0.0111
     22 C         138.4554  143.7115  164.3435 C.ar    1  UNL1        0.0577
     23 CL        138.3385  144.8917  165.2621 Cl      1  UNL1       -0.0822
     24 C         138.0299  143.8318  162.9102 C.ar    1  UNL1        0.0111
     25 C         138.1468  142.6517  161.9917 C.ar    1  UNL1       -0.0030
     26 C         139.5372  143.7945  157.1960 C.3     1  UNL1        0.0721
     27 C         139.7300  143.7581  158.6832 C.3     1  UNL1        0.0177
     28 C         140.9021  144.4579  159.3048 C.3     1  UNL1        0.0061
     29 C         142.1363  143.6829  159.6600 C.3     1  UNL1        0.0264
     30 C         142.6035  143.6280  161.0843 C.ar    1  UNL1       -0.0220
     31 C         141.6536  143.9544  162.1983 C.ar    1  UNL1       -0.0012
     32 C         142.1207  143.8994  163.6227 C.ar    1  UNL1        0.0366
     33 C         143.5379  143.5181  163.9330 C.ar    1  UNL1        0.1385
     34 C         144.4878  143.1917  162.8190 C.ar    1  UNL1        0.0366
     35 C         144.0206  143.2466  161.3946 C.ar    1  UNL1       -0.0012
     36 O         144.0050  143.4631  165.3573 O.3     1  UNL1       -0.4754
     37 C         143.4163  142.4572  166.3014 C.3     1  UNL1        0.2068
     38 C         143.2242  141.0367  165.8596 C.3     1  UNL1        0.0646
     39 C         142.6203  140.0344  166.7980 C.3     1  UNL1        0.0759
     40 N         141.2812  139.4319  166.4918 N.3     1  UNL1       -0.2726
     41 C         140.1559  139.8574  167.3875 C.3     1  UNL1        0.0721
     42 C         138.7158  139.4397  167.3430 C.3     1  UNL1        0.0173
     43 C         138.0456  138.4932  166.3917 C.3     1  UNL1        0.0015
     44 C         138.6498  137.7307  165.2500 C.3     1  UNL1        0.0015
     45 C         140.0735  137.7264  164.7776 C.3     1  UNL1        0.0173
     46 C         141.2446  138.4834  165.3301 C.3     1  UNL1        0.0721
@<TRIPOS>BOND
     1     7     8    2
     2     8     9   ar
     3     9    10   ar
     4    10    11   ar
     5    11    12   ar
     6    12    13   ar
     7    13    14   ar
     8    14    15   ar
     9    15    18    1
    10    18    19    1
    11    19    20   ar
    12    20    21   ar
    13    21    22   ar
    14    22    23    1
    15    22    24   ar
    16    24    25   ar
    17    15    16   ar
    18    16    17   ar
    19    17     6    1
    20     1     6    1
    21     1     2    1
    22     2     3    1
    23     3     4    1
    24     4     5    1
    25     5    26    1
    26    26    27    1
    27    27    28    1
    28    28    29    1
    29    29    30    1
    30    30    31   ar
    31    31    32   ar
    32    32    33   ar
    33    33    36    1
    34    36    37    1
    35    37    38    1
    36    38    39    1
    37    39    40    1
    38    40    41    1
    39    41    42    1
    40    42    43    1
    41    43    44    1
    42    44    45    1
    43    45    46    1
    44    33    34   ar
    45    34    35   ar
    46    17     8   ar
    47     5     1    1
    48    35    30   ar
    49    14     9   ar
    50    25    19   ar
    51    46    40    1
@<TRIPOS>MOLECULE
*****
 46 51 0 0 0
SMALL
GASTEIGER

@<TRIPOS>ATOM
      1 C         138.5460  139.1517  163.6214 C.3     1  UNL1        0.0821
      2 C         139.0975  138.0648  162.7472 C.3     1  UNL1        0.0194
      3 C         139.8564  137.1089  163.6192 C.3     1  UNL1        0.0188
      4 C         139.7739  137.6051  165.0324 C.3     1  UNL1        0.0722
      5 N         138.9641  138.8676  165.0337 N.3     1  UNL1       -0.2721
      6 C         137.7213  140.3180  163.1637 C.3     1  UNL1        0.1465
      7 O         138.7252  143.0493  163.8933 O.2     1  UNL1       -0.2655
      8 C         138.7465  142.5999  162.4624 C.ar    1  UNL1        0.2763
      9 C         139.2697  143.5162  161.3962 C.ar    1  UNL1        0.0588
     10 C         139.7717  144.8818  161.7609 C.ar    1  UNL1        0.0048
     11 C         140.2949  145.7980  160.6947 C.ar    1  UNL1        0.0002
     12 C         140.3163  145.3486  159.2638 C.ar    1  UNL1        0.0000
     13 C         139.8143  143.9829  158.8990 C.ar    1  UNL1        0.0014
     14 C         139.2911  143.0667  159.9652 C.ar    1  UNL1        0.0202
     15 C         138.7891  141.7011  159.6005 C.ar    1  UNL1        0.0832
     16 N         138.2659  140.7848  160.6667 N.ar    1  UNL1       -0.1708
     17 N         138.2445  141.2342  162.0976 N.ar    1  UNL1       -0.2156
     18 C         138.8105  141.2517  158.1696 C.3     1  UNL1        0.0738
     19 C         139.9623  140.4398  157.6555 C.ar    1  UNL1       -0.0161
     20 C         140.0809  138.9902  158.0220 C.ar    1  UNL1       -0.0030
     21 C         141.2327  138.1784  157.5080 C.ar    1  UNL1        0.0111
     22 C         142.2659  138.8163  156.6273 C.ar    1  UNL1        0.0577
     23 CL        143.4178  138.0045  156.1132 Cl      1  UNL1       -0.0822
     24 C         142.1474  140.2660  156.2608 C.ar    1  UNL1        0.0111
     25 C         140.9956  141.0777  156.7749 C.ar    1  UNL1       -0.0030
     26 C         138.6307  139.6999  166.2363 C.3     1  UNL1        0.0721
     27 C         139.6362  140.6728  166.7772 C.3     1  UNL1        0.0177
     28 C         140.9683  140.1828  167.2621 C.3     1  UNL1        0.0061
     29 C         142.2171  140.5385  166.5112 C.3     1  UNL1        0.0264
     30 C         142.3447  140.1868  165.0586 C.ar    1  UNL1       -0.0220
     31 C         141.6452  141.0150  164.0221 C.ar    1  UNL1       -0.0012
     32 C         141.7728  140.6633  162.5695 C.ar    1  UNL1        0.0366
     33 C         142.6000  139.4832  162.1535 C.ar    1  UNL1        0.1385
     34 C         143.2996  138.6549  163.1900 C.ar    1  UNL1        0.0366
     35 C         143.1720  139.0067  164.6426 C.ar    1  UNL1       -0.0012
     36 O         142.7276  139.1314  160.7009 O.3     1  UNL1       -0.4754
     37 C         143.7180  139.8557  159.8380 C.3     1  UNL1        0.2068
     38 C         143.5218  141.3106  159.5304 C.3     1  UNL1        0.0646
     39 C         144.4685  142.3301  160.0909 C.3     1  UNL1        0.0759
     40 N         144.3980  142.7010  161.5426 N.3     1  UNL1       -0.2726
     41 C         145.2703  141.8991  162.4623 C.3     1  UNL1        0.0721
     42 C         145.4246  142.0228  163.9492 C.3     1  UNL1        0.0173
     43 C         144.7447  142.9791  164.8836 C.3     1  UNL1        0.0015
     44 C         143.7425  144.0479  164.5619 C.3     1  UNL1        0.0015
     45 C         143.1728  144.4242  163.2264 C.3     1  UNL1        0.0173
     46 C         143.4645  143.8249  161.8826 C.3     1  UNL1        0.0721
@<TRIPOS>BOND
     1     7     8    2
     2     8     9   ar
     3     9    10   ar
     4    10    11   ar
     5    11    12   ar
     6    12    13   ar
     7    13    14   ar
     8    14    15   ar
     9    15    18    1
    10    18    19    1
    11    19    20   ar
    12    20    21   ar
    13    21    22   ar
    14    22    23    1
    15    22    24   ar
    16    24    25   ar
    17    15    16   ar
    18    16    17   ar
    19    17     6    1
    20     1     6    1
    21     1     2    1
    22     2     3    1
    23     3     4    1
    24     4     5    1
    25     5    26    1
    26    26    27    1
    27    27    28    1
    28    28    29    1
    29    29    30    1
    30    30    31   ar
    31    31    32   ar
    32    32    33   ar
    33    33    36    1
    34    36    37    1
    35    37    38    1
    36    38    39    1
    37    39    40    1
    38    40    41    1
    39    41    42    1
    40    42    43    1
    41    43    44    1
    42    44    45    1
    43    45    46    1
    44    33    34   ar
    45    34    35   ar
    46    17     8   ar
    47     5     1    1
    48    35    30   ar
    49    14     9   ar
    50    25    19   ar
    51    46    40    1
@<TRIPOS>MOLECULE
*****
 46 51 0 0 0
SMALL
GASTEIGER

@<TRIPOS>ATOM
      1 C         140.3150  142.2290  156.1876 C.3     1  UNL1        0.0821
      2 C         141.2799  142.5207  155.0768 C.3     1  UNL1        0.0194
      3 C         141.6793  143.9631  155.1765 C.3     1  UNL1        0.0188
      4 C         140.9612  144.5629  156.3490 C.3     1  UNL1        0.0722
      5 N         140.1180  143.4912  156.9738 N.3     1  UNL1       -0.2721
      6 C         139.6617  140.9073  156.4637 C.3     1  UNL1        0.1465
      7 O         137.3663  140.3393  158.3099 O.2     1  UNL1       -0.2655
      8 C         138.7564  139.9250  158.6920 C.ar    1  UNL1        0.2763
      9 C         138.9988  139.2266  159.9972 C.ar    1  UNL1        0.0588
     10 C         137.8511  138.9426  160.9203 C.ar    1  UNL1        0.0048
     11 C         138.0935  138.2442  162.2255 C.ar    1  UNL1        0.0002
     12 C         139.4836  137.8299  162.6076 C.ar    1  UNL1        0.0000
     13 C         140.6313  138.1139  161.6844 C.ar    1  UNL1        0.0014
     14 C         140.3889  138.8122  160.3792 C.ar    1  UNL1        0.0202
     15 C         141.5366  139.0963  159.4561 C.ar    1  UNL1        0.0832
     16 N         141.2942  139.7946  158.1509 N.ar    1  UNL1       -0.1708
     17 N         139.9041  140.2090  157.7689 N.ar    1  UNL1       -0.2156
     18 C         142.9266  138.6819  159.8382 C.3     1  UNL1        0.0738
     19 C         143.6848  139.4623  160.8708 C.ar    1  UNL1       -0.0161
     20 C         144.0622  140.8894  160.6046 C.ar    1  UNL1       -0.0030
     21 C         144.8203  141.6698  161.6372 C.ar    1  UNL1        0.0111
     22 C         145.2010  141.0230  162.9360 C.ar    1  UNL1        0.0577
     23 CL        145.9591  141.8035  163.9686 Cl      1  UNL1       -0.0822
     24 C         144.8236  139.5959  163.2022 C.ar    1  UNL1        0.0111
     25 C         144.0655  138.8156  162.1696 C.ar    1  UNL1       -0.0030
     26 C         139.2332  143.6532  158.1742 C.3     1  UNL1        0.0721
     27 C         139.7735  143.3800  159.5466 C.3     1  UNL1        0.0177
     28 C         141.1091  143.9304  159.9501 C.3     1  UNL1        0.0061
     29 C         141.3056  144.4866  161.3293 C.3     1  UNL1        0.0264
     30 C         141.6728  143.5733  162.4611 C.ar    1  UNL1       -0.0220
     31 C         142.4646  144.0982  163.6219 C.ar    1  UNL1       -0.0012
     32 C         142.8319  143.1849  164.7536 C.ar    1  UNL1        0.0366
     33 C         142.4074  141.7465  164.7246 C.ar    1  UNL1        0.1385
     34 C         141.6157  141.2215  163.5638 C.ar    1  UNL1        0.0366
     35 C         141.2484  142.1349  162.4320 C.ar    1  UNL1       -0.0012
     36 O         142.7747  140.8332  165.8564 O.3     1  UNL1       -0.4754
     37 C         141.7460  140.4581  166.8816 C.3     1  UNL1        0.2068
     38 C         140.4662  139.8022  166.4548 C.3     1  UNL1        0.0646
     39 C         139.1692  140.5480  166.5618 C.3     1  UNL1        0.0759
     40 N         138.8198  141.5947  165.5458 N.3     1  UNL1       -0.2726
     41 C         139.2783  142.9874  165.8622 C.3     1  UNL1        0.0721
     42 C         139.0884  144.2398  165.0587 C.3     1  UNL1        0.0173
     43 C         138.3930  144.4087  163.7404 C.3     1  UNL1        0.0015
     44 C         137.7159  143.3670  162.9000 C.3     1  UNL1        0.0015
     45 C         137.5669  141.8991  163.1703 C.3     1  UNL1        0.0173
     46 C         138.0581  141.1103  164.3477 C.3     1  UNL1        0.0721
@<TRIPOS>BOND
     1     7     8    2
     2     8     9   ar
     3     9    10   ar
     4    10    11   ar
     5    11    12   ar
     6    12    13   ar
     7    13    14   ar
     8    14    15   ar
     9    15    18    1
    10    18    19    1
    11    19    20   ar
    12    20    21   ar
    13    21    22   ar
    14    22    23    1
    15    22    24   ar
    16    24    25   ar
    17    15    16   ar
    18    16    17   ar
    19    17     6    1
    20     1     6    1
    21     1     2    1
    22     2     3    1
    23     3     4    1
    24     4     5    1
    25     5    26    1
    26    26    27    1
    27    27    28    1
    28    28    29    1
    29    29    30    1
    30    30    31   ar
    31    31    32   ar
    32    32    33   ar
    33    33    36    1
    34    36    37    1
    35    37    38    1
    36    38    39    1
    37    39    40    1
    38    40    41    1
    39    41    42    1
    40    42    43    1
    41    43    44    1
    42    44    45    1
    43    45    46    1
    44    33    34   ar
    45    34    35   ar
    46    17     8   ar
    47     5     1    1
    48    35    30   ar
    49    14     9   ar
    50    25    19   ar
    51    46    40    1
