@<TRIPOS>MOLECULE
*****
 27 31 0 0 0
SMALL
GASTEIGER

@<TRIPOS>ATOM
      1 C         142.7655  138.5122  165.3494 C.ar    1  UNL1       -0.0207
      2 C         141.5878  137.6470  165.0111 C.ar    1  UNL1       -0.0027
      3 C         141.2685  137.3418  163.5777 C.ar    1  UNL1        0.0188
      4 C         142.1270  137.9017  162.4824 C.ar    1  UNL1        0.0813
      5 N         141.8076  137.5965  161.0489 N.ar    1  UNL1       -0.2433
      6 C         142.6660  138.1564  159.9537 C.ar    1  UNL1        0.1050
      7 C         143.8438  139.0217  160.2920 C.ar    1  UNL1        0.0212
      8 C         144.1631  139.3269  161.7254 C.ar    1  UNL1        0.0031
      9 C         143.3046  138.7669  162.8207 C.ar    1  UNL1        0.0174
     10 C         143.6239  139.0722  164.2541 C.ar    1  UNL1       -0.0027
     11 C         142.3468  137.8512  158.5202 C.ar    1  UNL1        0.1283
     12 N         143.1897  137.0380  157.5831 N.ar    1  UNL1       -0.2368
     13 C         142.4924  136.9897  156.2559 C.ar    1  UNL1        0.0879
     14 C         142.8528  136.3337  154.9560 C.ar    1  UNL1        0.0196
     15 C         141.9394  136.4611  153.7730 C.ar    1  UNL1        0.0016
     16 C         140.6656  137.2445  153.8899 C.ar    1  UNL1        0.0006
     17 C         140.3052  137.9005  155.1897 C.ar    1  UNL1        0.0080
     18 C         141.2185  137.7732  156.3727 C.ar    1  UNL1        0.0485
     19 S         141.1286  138.3056  157.7722 S.2     1  UNL1       -0.0650
     20 C         143.0848  138.8175  166.7829 C.3     1  UNL1        0.0437
     21 C         142.6339  140.1117  167.3925 C.3     1  UNL1        0.0768
     22 C         139.4628  140.3228  166.6520 C.3     1  UNL1        0.0173
     23 C         140.0409  140.2208  168.0323 C.3     1  UNL1        0.0576
     24 C         139.2629  140.1978  169.3145 C.3     1  UNL1        0.0174
     25 C         140.2397  140.0866  170.4475 C.3     1  UNL1        0.0187
     26 C         141.6215  140.0408  169.8653 C.3     1  UNL1        0.0721
     27 N         141.4985  140.1237  168.3727 N.3     1  UNL1       -0.2737
@<TRIPOS>BOND
     1    23    22    1
     2    23    24    1
     3    24    25    1
     4    25    26    1
     5    26    27    1
     6    27    21    1
     7    21    20    1
     8    20     1    1
     9     1     2   ar
    10     2     3   ar
    11     3     4   ar
    12     4     5   ar
    13     5     6   ar
    14     6    11    1
    15    11    12   ar
    16    12    13   ar
    17    13    14   ar
    18    14    15   ar
    19    15    16   ar
    20    16    17   ar
    21    17    18   ar
    22    18    19   ar
    23     6     7   ar
    24     7     8   ar
    25     8     9   ar
    26     9    10   ar
    27    27    23    1
    28    10     1   ar
    29     9     4   ar
    30    19    11   ar
    31    18    13   ar
@<TRIPOS>MOLECULE
*****
 27 31 0 0 0
SMALL
GASTEIGER

@<TRIPOS>ATOM
      1 C         139.4856  140.1654  167.5856 C.ar    1  UNL1       -0.0207
      2 C         140.2774  141.2583  166.9309 C.ar    1  UNL1       -0.0027
      3 C         140.6081  141.1730  165.4703 C.ar    1  UNL1        0.0188
      4 C         140.1471  139.9948  164.6645 C.ar    1  UNL1        0.0813
      5 N         140.4779  139.9095  163.2038 N.ar    1  UNL1       -0.2433
      6 C         140.0169  138.7314  162.3980 C.ar    1  UNL1        0.1050
      7 C         139.2251  137.6385  163.0528 C.ar    1  UNL1        0.0212
      8 C         138.8944  137.7237  164.5133 C.ar    1  UNL1        0.0031
      9 C         139.3554  138.9019  165.3192 C.ar    1  UNL1        0.0174
     10 C         139.0246  138.9872  166.7797 C.ar    1  UNL1       -0.0027
     11 C         140.3477  138.6461  160.9374 C.ar    1  UNL1        0.1283
     12 N         141.6969  138.3452  160.3551 N.ar    1  UNL1       -0.2368
     13 C         141.5704  138.3598  158.8605 C.ar    1  UNL1        0.0879
     14 C         142.5705  138.1310  157.7663 C.ar    1  UNL1        0.0196
     15 C         142.1433  138.2121  156.3306 C.ar    1  UNL1        0.0016
     16 C         140.7159  138.5221  155.9893 C.ar    1  UNL1        0.0006
     17 C         139.7158  138.7510  157.0835 C.ar    1  UNL1        0.0080
     18 C         140.1430  138.6698  158.5191 C.ar    1  UNL1        0.0485
     19 S         139.3873  138.8467  159.8027 S.2     1  UNL1       -0.0650
     20 C         139.1548  140.2506  169.0462 C.3     1  UNL1        0.0437
     21 C         140.2421  140.1154  170.0706 C.3     1  UNL1        0.0768
     22 C         140.0827  143.3593  170.3875 C.3     1  UNL1        0.0173
     23 C         141.3333  142.5519  170.2033 C.3     1  UNL1        0.0576
     24 C         142.7302  143.0938  170.1325 C.3     1  UNL1        0.0174
     25 C         143.6669  141.9376  169.9430 C.3     1  UNL1        0.0187
     26 C         142.8488  140.6811  169.8968 C.3     1  UNL1        0.0721
     27 N         141.4066  141.0608  170.0577 N.3     1  UNL1       -0.2737
@<TRIPOS>BOND
     1    23    22    1
     2    23    24    1
     3    24    25    1
     4    25    26    1
     5    26    27    1
     6    27    21    1
     7    21    20    1
     8    20     1    1
     9     1     2   ar
    10     2     3   ar
    11     3     4   ar
    12     4     5   ar
    13     5     6   ar
    14     6    11    1
    15    11    12   ar
    16    12    13   ar
    17    13    14   ar
    18    14    15   ar
    19    15    16   ar
    20    16    17   ar
    21    17    18   ar
    22    18    19   ar
    23     6     7   ar
    24     7     8   ar
    25     8     9   ar
    26     9    10   ar
    27    27    23    1
    28    10     1   ar
    29     9     4   ar
    30    19    11   ar
    31    18    13   ar
@<TRIPOS>MOLECULE
*****
 27 31 0 0 0
SMALL
GASTEIGER

@<TRIPOS>ATOM
      1 C         143.0916  142.9589  165.0952 C.ar    1  UNL1       -0.0207
      2 C         144.2419  143.5554  164.3396 C.ar    1  UNL1       -0.0027
      3 C         144.0293  144.1026  162.9593 C.ar    1  UNL1        0.0188
      4 C         142.6665  144.0532  162.3345 C.ar    1  UNL1        0.0813
      5 N         142.4541  144.6004  160.9541 N.ar    1  UNL1       -0.2433
      6 C         141.0913  144.5510  160.3293 C.ar    1  UNL1        0.1050
      7 C         139.9409  143.9544  161.0850 C.ar    1  UNL1        0.0212
      8 C         140.1535  143.4072  162.4653 C.ar    1  UNL1        0.0031
      9 C         141.5163  143.4566  163.0901 C.ar    1  UNL1        0.0174
     10 C         141.7288  142.9095  164.4704 C.ar    1  UNL1       -0.0027
     11 C         140.8787  145.0981  158.9490 C.ar    1  UNL1        0.1283
     12 N         139.8301  146.0922  158.5464 N.ar    1  UNL1       -0.2368
     13 C         139.9808  146.3558  157.0775 C.ar    1  UNL1        0.0879
     14 C         139.2258  147.2453  156.1347 C.ar    1  UNL1        0.0196
     15 C         139.6127  147.3035  154.6866 C.ar    1  UNL1        0.0016
     16 C         140.7545  146.4723  154.1813 C.ar    1  UNL1        0.0006
     17 C         141.5094  145.5828  155.1241 C.ar    1  UNL1        0.0080
     18 C         141.1226  145.5245  156.5721 C.ar    1  UNL1        0.0485
     19 S         141.6776  144.7473  157.7288 S.2     1  UNL1       -0.0650
     20 C         143.3040  142.4117  166.4757 C.3     1  UNL1        0.0437
     21 C         142.1255  142.1196  167.3563 C.3     1  UNL1        0.0768
     22 C         144.0670  142.5001  169.9515 C.3     1  UNL1        0.0173
     23 C         143.1567  141.3359  169.6946 C.3     1  UNL1        0.0576
     24 C         142.9790  140.1423  170.5854 C.3     1  UNL1        0.0174
     25 C         141.9766  139.2296  169.9431 C.3     1  UNL1        0.0187
     26 C         141.5349  139.8593  168.6552 C.3     1  UNL1        0.0721
     27 N         142.2643  141.1611  168.5017 N.3     1  UNL1       -0.2737
@<TRIPOS>BOND
     1    23    22    1
     2    23    24    1
     3    24    25    1
     4    25    26    1
     5    26    27    1
     6    27    21    1
     7    21    20    1
     8    20     1    1
     9     1     2   ar
    10     2     3   ar
    11     3     4   ar
    12     4     5   ar
    13     5     6   ar
    14     6    11    1
    15    11    12   ar
    16    12    13   ar
    17    13    14   ar
    18    14    15   ar
    19    15    16   ar
    20    16    17   ar
    21    17    18   ar
    22    18    19   ar
    23     6     7   ar
    24     7     8   ar
    25     8     9   ar
    26     9    10   ar
    27    27    23    1
    28    10     1   ar
    29     9     4   ar
    30    19    11   ar
    31    18    13   ar
@<TRIPOS>MOLECULE
*****
 27 31 0 0 0
SMALL
GASTEIGER

@<TRIPOS>ATOM
      1 C         142.7873  138.5055  165.3072 C.ar    1  UNL1       -0.0207
      2 C         141.6268  137.6163  164.9719 C.ar    1  UNL1       -0.0027
      3 C         141.3003  137.3180  163.5386 C.ar    1  UNL1        0.0188
      4 C         142.1343  137.9088  162.4407 C.ar    1  UNL1        0.0813
      5 N         141.8077  137.6104  161.0074 N.ar    1  UNL1       -0.2433
      6 C         142.6417  138.2013  159.9095 C.ar    1  UNL1        0.1050
      7 C         143.8023  139.0904  160.2449 C.ar    1  UNL1        0.0212
      8 C         144.1288  139.3888  161.6782 C.ar    1  UNL1        0.0031
      9 C         143.2948  138.7980  162.7761 C.ar    1  UNL1        0.0174
     10 C         143.6214  139.0963  164.2093 C.ar    1  UNL1       -0.0027
     11 C         142.3152  137.9029  158.4762 C.ar    1  UNL1        0.1283
     12 N         143.1557  137.0985  157.5295 N.ar    1  UNL1       -0.2368
     13 C         142.4508  137.0550  156.2061 C.ar    1  UNL1        0.0879
     14 C         142.8062  136.4078  154.9004 C.ar    1  UNL1        0.0196
     15 C         141.8852  136.5383  153.7235 C.ar    1  UNL1        0.0016
     16 C         140.6090  137.3159  153.8524 C.ar    1  UNL1        0.0006
     17 C         140.2537  137.9630  155.1582 C.ar    1  UNL1        0.0080
     18 C         141.1745  137.8326  156.3350 C.ar    1  UNL1        0.0485
     19 S         141.0907  138.3566  157.7380 S.2     1  UNL1       -0.0650
     20 C         143.1139  138.8039  166.7406 C.3     1  UNL1        0.0437
     21 C         142.2710  139.7725  167.5159 C.3     1  UNL1        0.0768
     22 C         139.0873  139.7035  166.8029 C.3     1  UNL1        0.0173
     23 C         140.0417  140.8114  166.4690 C.3     1  UNL1        0.0576
     24 C         139.7003  142.0821  165.7487 C.3     1  UNL1        0.0174
     25 C         140.9528  142.8992  165.6313 C.3     1  UNL1        0.0187
     26 C         142.0683  142.1334  166.2791 C.3     1  UNL1        0.0721
     27 N         141.5051  140.8431  166.7967 N.3     1  UNL1       -0.2737
@<TRIPOS>BOND
     1    23    22    1
     2    23    24    1
     3    24    25    1
     4    25    26    1
     5    26    27    1
     6    27    21    1
     7    21    20    1
     8    20     1    1
     9     1     2   ar
    10     2     3   ar
    11     3     4   ar
    12     4     5   ar
    13     5     6   ar
    14     6    11    1
    15    11    12   ar
    16    12    13   ar
    17    13    14   ar
    18    14    15   ar
    19    15    16   ar
    20    16    17   ar
    21    17    18   ar
    22    18    19   ar
    23     6     7   ar
    24     7     8   ar
    25     8     9   ar
    26     9    10   ar
    27    27    23    1
    28    10     1   ar
    29     9     4   ar
    30    19    11   ar
    31    18    13   ar
@<TRIPOS>MOLECULE
*****
 27 31 0 0 0
SMALL
GASTEIGER

@<TRIPOS>ATOM
      1 C         139.4519  137.7389  163.8918 C.ar    1  UNL1       -0.0207
      2 C         138.5643  137.8862  162.6916 C.ar    1  UNL1       -0.0027
      3 C         139.1590  138.2185  161.3553 C.ar    1  UNL1        0.0188
      4 C         140.6413  138.4037  161.2192 C.ar    1  UNL1        0.0813
      5 N         141.2360  138.7361  159.8828 N.ar    1  UNL1       -0.2433
      6 C         142.7183  138.9212  159.7466 C.ar    1  UNL1        0.1050
      7 C         143.6059  138.7739  160.9469 C.ar    1  UNL1        0.0212
      8 C         143.0112  138.4416  162.2832 C.ar    1  UNL1        0.0031
      9 C         141.5289  138.2564  162.4194 C.ar    1  UNL1        0.0174
     10 C         140.9342  137.9240  163.7557 C.ar    1  UNL1       -0.0027
     11 C         143.3130  139.2536  158.4103 C.ar    1  UNL1        0.1283
     12 N         143.3436  138.3538  157.2105 N.ar    1  UNL1       -0.2368
     13 C         144.0311  139.0882  156.0978 C.ar    1  UNL1        0.0879
     14 C         144.3490  138.6993  154.6845 C.ar    1  UNL1        0.0196
     15 C         145.0612  139.6640  153.7832 C.ar    1  UNL1        0.0016
     16 C         145.4554  141.0176  154.2953 C.ar    1  UNL1        0.0006
     17 C         145.1374  141.4066  155.7087 C.ar    1  UNL1        0.0080
     18 C         144.4253  140.4419  156.6099 C.ar    1  UNL1        0.0485
     19 S         143.9815  140.5441  158.0391 S.2     1  UNL1       -0.0650
     20 C         138.8572  137.4065  165.2282 C.3     1  UNL1        0.0437
     21 C         138.2642  138.4924  166.0763 C.3     1  UNL1        0.0768
     22 C         138.1174  141.2046  164.2675 C.3     1  UNL1        0.0173
     23 C         138.9649  141.0042  165.4888 C.3     1  UNL1        0.0576
     24 C         139.8938  142.0151  166.0931 C.3     1  UNL1        0.0174
     25 C         140.5354  141.3933  167.2980 C.3     1  UNL1        0.0187
     26 C         140.0030  139.9979  167.4383 C.3     1  UNL1        0.0721
     27 N         139.0324  139.7575  166.3202 N.3     1  UNL1       -0.2737
@<TRIPOS>BOND
     1    23    22    1
     2    23    24    1
     3    24    25    1
     4    25    26    1
     5    26    27    1
     6    27    21    1
     7    21    20    1
     8    20     1    1
     9     1     2   ar
    10     2     3   ar
    11     3     4   ar
    12     4     5   ar
    13     5     6   ar
    14     6    11    1
    15    11    12   ar
    16    12    13   ar
    17    13    14   ar
    18    14    15   ar
    19    15    16   ar
    20    16    17   ar
    21    17    18   ar
    22    18    19   ar
    23     6     7   ar
    24     7     8   ar
    25     8     9   ar
    26     9    10   ar
    27    27    23    1
    28    10     1   ar
    29     9     4   ar
    30    19    11   ar
    31    18    13   ar
@<TRIPOS>MOLECULE
*****
 27 31 0 0 0
SMALL
GASTEIGER

@<TRIPOS>ATOM
      1 C         139.4720  140.4989  166.8091 C.ar    1  UNL1       -0.0207
      2 C         138.6500  139.9361  165.6878 C.ar    1  UNL1       -0.0027
      3 C         138.7727  140.5091  164.3070 C.ar    1  UNL1        0.0188
      4 C         139.7175  141.6450  164.0476 C.ar    1  UNL1        0.0813
      5 N         139.8403  142.2180  162.6668 N.ar    1  UNL1       -0.2433
      6 C         140.7850  143.3538  162.4074 C.ar    1  UNL1        0.1050
      7 C         141.6071  143.9166  163.5289 C.ar    1  UNL1        0.0212
      8 C         141.4843  143.3436  164.9096 C.ar    1  UNL1        0.0031
      9 C         140.5396  142.2077  165.1690 C.ar    1  UNL1        0.0174
     10 C         140.4168  141.6347  166.5497 C.ar    1  UNL1       -0.0027
     11 C         140.9078  143.9269  161.0267 C.ar    1  UNL1        0.1283
     12 N         139.9473  144.8797  160.3790 N.ar    1  UNL1       -0.2368
     13 C         140.4585  145.1894  159.0032 C.ar    1  UNL1        0.0879
     14 C         139.9266  146.0665  157.9087 C.ar    1  UNL1        0.0196
     15 C         140.6711  146.1820  156.6116 C.ar    1  UNL1        0.0016
     16 C         141.9475  145.4206  156.4091 C.ar    1  UNL1        0.0006
     17 C         142.4794  144.5436  157.5036 C.ar    1  UNL1        0.0080
     18 C         141.7349  144.4280  158.8006 C.ar    1  UNL1        0.0485
     19 S         142.0126  143.6477  160.0512 S.2     1  UNL1       -0.0650
     20 C         139.3493  139.9258  168.1900 C.3     1  UNL1        0.0437
     21 C         139.5798  140.7990  169.3876 C.3     1  UNL1        0.0768
     22 C         142.3504  139.0971  169.6641 C.3     1  UNL1        0.0173
     23 C         142.2159  140.5868  169.7762 C.3     1  UNL1        0.0576
     24 C         143.3313  141.5558  170.0350 C.3     1  UNL1        0.0174
     25 C         142.7471  142.9370  170.0679 C.3     1  UNL1        0.0187
     26 C         141.2706  142.8216  169.8294 C.3     1  UNL1        0.0721
     27 N         140.9424  141.3691  169.6491 N.3     1  UNL1       -0.2737
@<TRIPOS>BOND
     1    23    22    1
     2    23    24    1
     3    24    25    1
     4    25    26    1
     5    26    27    1
     6    27    21    1
     7    21    20    1
     8    20     1    1
     9     1     2   ar
    10     2     3   ar
    11     3     4   ar
    12     4     5   ar
    13     5     6   ar
    14     6    11    1
    15    11    12   ar
    16    12    13   ar
    17    13    14   ar
    18    14    15   ar
    19    15    16   ar
    20    16    17   ar
    21    17    18   ar
    22    18    19   ar
    23     6     7   ar
    24     7     8   ar
    25     8     9   ar
    26     9    10   ar
    27    27    23    1
    28    10     1   ar
    29     9     4   ar
    30    19    11   ar
    31    18    13   ar
@<TRIPOS>MOLECULE
*****
 27 31 0 0 0
SMALL
GASTEIGER

@<TRIPOS>ATOM
      1 C         140.1532  143.4255  165.4668 C.ar    1  UNL1       -0.0207
      2 C         138.9276  144.2076  165.0975 C.ar    1  UNL1       -0.0027
      3 C         138.7730  144.7469  163.7064 C.ar    1  UNL1        0.0188
      4 C         139.8440  144.5042  162.6846 C.ar    1  UNL1        0.0813
      5 N         139.6893  145.0435  161.2934 N.ar    1  UNL1       -0.2433
      6 C         140.7602  144.8008  160.2716 C.ar    1  UNL1        0.1050
      7 C         141.9858  144.0186  160.6408 C.ar    1  UNL1        0.0212
      8 C         142.1404  143.4793  162.0319 C.ar    1  UNL1        0.0031
      9 C         141.0695  143.7221  163.0538 C.ar    1  UNL1        0.0174
     10 C         141.2241  143.1827  164.4449 C.ar    1  UNL1       -0.0027
     11 C         140.6056  145.3401  158.8805 C.ar    1  UNL1        0.1283
     12 N         139.6057  146.3675  158.4393 N.ar    1  UNL1       -0.2368
     13 C         139.8059  146.6091  156.9724 C.ar    1  UNL1        0.0879
     14 C         139.1102  147.5152  156.0004 C.ar    1  UNL1        0.0196
     15 C         139.5381  147.5432  154.5629 C.ar    1  UNL1        0.0016
     16 C         140.6617  146.6652  154.0976 C.ar    1  UNL1        0.0006
     17 C         141.3574  145.7590  155.0697 C.ar    1  UNL1        0.0080
     18 C         140.9295  145.7310  156.5071 C.ar    1  UNL1        0.0485
     19 S         141.4237  144.9467  157.6863 S.2     1  UNL1       -0.0650
     20 C         140.3078  142.8861  166.8579 C.3     1  UNL1        0.0437
     21 C         140.1615  141.4152  167.1126 C.3     1  UNL1        0.0768
     22 C         139.7182  142.0039  170.2916 C.3     1  UNL1        0.0173
     23 C         140.7069  141.0418  169.7026 C.3     1  UNL1        0.0576
     24 C         141.6654  140.1815  170.4714 C.3     1  UNL1        0.0174
     25 C         142.4616  139.3791  169.4853 C.3     1  UNL1        0.0187
     26 C         141.9951  139.7437  168.1070 C.3     1  UNL1        0.0721
     27 N         140.9106  140.7713  168.2414 N.3     1  UNL1       -0.2737
@<TRIPOS>BOND
     1    23    22    1
     2    23    24    1
     3    24    25    1
     4    25    26    1
     5    26    27    1
     6    27    21    1
     7    21    20    1
     8    20     1    1
     9     1     2   ar
    10     2     3   ar
    11     3     4   ar
    12     4     5   ar
    13     5     6   ar
    14     6    11    1
    15    11    12   ar
    16    12    13   ar
    17    13    14   ar
    18    14    15   ar
    19    15    16   ar
    20    16    17   ar
    21    17    18   ar
    22    18    19   ar
    23     6     7   ar
    24     7     8   ar
    25     8     9   ar
    26     9    10   ar
    27    27    23    1
    28    10     1   ar
    29     9     4   ar
    30    19    11   ar
    31    18    13   ar
@<TRIPOS>MOLECULE
*****
 27 31 0 0 0
SMALL
GASTEIGER

@<TRIPOS>ATOM
      1 C         140.6907  142.8058  166.1312 C.ar    1  UNL1       -0.0207
      2 C         139.3418  143.2574  165.6553 C.ar    1  UNL1       -0.0027
      3 C         139.1667  143.7398  164.2458 C.ar    1  UNL1        0.0188
      4 C         140.3404  143.7705  163.3123 C.ar    1  UNL1        0.0813
      5 N         140.1652  144.2529  161.9028 N.ar    1  UNL1       -0.2433
      6 C         141.3389  144.2836  160.9693 C.ar    1  UNL1        0.1050
      7 C         142.6878  143.8319  161.4452 C.ar    1  UNL1        0.0212
      8 C         142.8629  143.3495  162.8547 C.ar    1  UNL1        0.0031
      9 C         141.6892  143.3188  163.7882 C.ar    1  UNL1        0.0174
     10 C         141.8644  142.8365  165.1977 C.ar    1  UNL1       -0.0027
     11 C         141.1637  144.7660  159.5598 C.ar    1  UNL1        0.1283
     12 N         140.1002  145.7064  159.0755 N.ar    1  UNL1       -0.2368
     13 C         140.3005  145.9142  157.6036 C.ar    1  UNL1        0.0879
     14 C         139.5551  146.7379  156.5956 C.ar    1  UNL1        0.0196
     15 C         139.9971  146.7497  155.1622 C.ar    1  UNL1        0.0016
     16 C         141.1844  145.9378  154.7368 C.ar    1  UNL1        0.0006
     17 C         141.9298  145.1141  155.7448 C.ar    1  UNL1        0.0080
     18 C         141.4879  145.1023  157.1781 C.ar    1  UNL1        0.0485
     19 S         142.0213  144.3926  158.3871 S.2     1  UNL1       -0.0650
     20 C         140.8659  142.3234  167.5407 C.3     1  UNL1        0.0437
     21 C         140.6550  140.8752  167.8695 C.3     1  UNL1        0.0768
     22 C         142.6217  139.2103  165.8671 C.3     1  UNL1        0.0173
     23 C         141.1228  139.1536  165.8788 C.3     1  UNL1        0.0576
     24 C         140.2648  138.3218  164.9722 C.3     1  UNL1        0.0174
     25 C         138.8304  138.5730  165.3323 C.3     1  UNL1        0.0187
     26 C         138.8020  139.5601  166.4615 C.3     1  UNL1        0.0721
     27 N         140.2188  139.9189  166.7992 N.3     1  UNL1       -0.2737
@<TRIPOS>BOND
     1    23    22    1
     2    23    24    1
     3    24    25    1
     4    25    26    1
     5    26    27    1
     6    27    21    1
     7    21    20    1
     8    20     1    1
     9     1     2   ar
    10     2     3   ar
    11     3     4   ar
    12     4     5   ar
    13     5     6   ar
    14     6    11    1
    15    11    12   ar
    16    12    13   ar
    17    13    14   ar
    18    14    15   ar
    19    15    16   ar
    20    16    17   ar
    21    17    18   ar
    22    18    19   ar
    23     6     7   ar
    24     7     8   ar
    25     8     9   ar
    26     9    10   ar
    27    27    23    1
    28    10     1   ar
    29     9     4   ar
    30    19    11   ar
    31    18    13   ar
@<TRIPOS>MOLECULE
*****
 27 31 0 0 0
SMALL
GASTEIGER

@<TRIPOS>ATOM
      1 C         143.1303  142.9598  164.8752 C.ar    1  UNL1       -0.0207
      2 C         144.1529  142.6783  163.8146 C.ar    1  UNL1       -0.0027
      3 C         143.9111  143.1232  162.4027 C.ar    1  UNL1        0.0188
      4 C         142.6466  143.8496  162.0514 C.ar    1  UNL1        0.0813
      5 N         142.4048  144.2945  160.6394 N.ar    1  UNL1       -0.2433
      6 C         141.1403  145.0209  160.2881 C.ar    1  UNL1        0.1050
      7 C         140.1176  145.3023  161.3487 C.ar    1  UNL1        0.0212
      8 C         140.3594  144.8574  162.7606 C.ar    1  UNL1        0.0031
      9 C         141.6239  144.1310  163.1120 C.ar    1  UNL1        0.0174
     10 C         141.8658  143.6861  164.5239 C.ar    1  UNL1       -0.0027
     11 C         140.8984  145.4658  158.8762 C.ar    1  UNL1        0.1283
     12 N         139.7540  146.3116  158.4021 N.ar    1  UNL1       -0.2368
     13 C         139.9068  146.5116  156.9234 C.ar    1  UNL1        0.0879
     14 C         139.0778  147.2580  155.9205 C.ar    1  UNL1        0.0196
     15 C         139.4879  147.2822  154.4778 C.ar    1  UNL1        0.0016
     16 C         140.7268  146.5600  154.0380 C.ar    1  UNL1        0.0006
     17 C         141.5557  145.8136  155.0409 C.ar    1  UNL1        0.0080
     18 C         141.1457  145.7893  156.4835 C.ar    1  UNL1        0.0485
     19 S         141.7586  145.1430  157.6904 S.2     1  UNL1       -0.0650
     20 C         143.3721  142.5148  166.2872 C.3     1  UNL1        0.0437
     21 C         142.8379  141.1953  166.7596 C.3     1  UNL1        0.0768
     22 C         144.5650  139.1568  164.8859 C.3     1  UNL1        0.0173
     23 C         143.0702  139.2793  164.9102 C.3     1  UNL1        0.0576
     24 C         142.1069  138.4863  164.0777 C.3     1  UNL1        0.0174
     25 C         140.7176  138.9332  164.4244 C.3     1  UNL1        0.0187
     26 C         140.8223  140.0024  165.4713 C.3     1  UNL1        0.0721
     27 N         142.2764  140.2162  165.7715 N.3     1  UNL1       -0.2737
@<TRIPOS>BOND
     1    23    22    1
     2    23    24    1
     3    24    25    1
     4    25    26    1
     5    26    27    1
     6    27    21    1
     7    21    20    1
     8    20     1    1
     9     1     2   ar
    10     2     3   ar
    11     3     4   ar
    12     4     5   ar
    13     5     6   ar
    14     6    11    1
    15    11    12   ar
    16    12    13   ar
    17    13    14   ar
    18    14    15   ar
    19    15    16   ar
    20    16    17   ar
    21    17    18   ar
    22    18    19   ar
    23     6     7   ar
    24     7     8   ar
    25     8     9   ar
    26     9    10   ar
    27    27    23    1
    28    10     1   ar
    29     9     4   ar
    30    19    11   ar
    31    18    13   ar
